
##########################################################################
#               Crystallographic Information Format file
#               Produced by PyCifRW module
#
#  This is a CIF file.  CIF has been adopted by the International
#  Union of Crystallography as the standard for data archiving and
#  transmission.
#
#  For information on this file format, follow the CIF links at
#  http://www.iucr.org
##########################################################################

data_str_m1_o6_tfs

_audit_creation_date                    2014-11-07T14:56:42-0500
_audit_creation_method                  'faps 1.5.0.0'
_symmetry_space_group_name_H-M          P1
_symmetry_Int_Tables_number             1
_space_group_crystal_system             triclinic
loop_
  _symmetry_equiv_pos_as_xyz
         'x,y,z' 
_cell_length_a                          18.1838202
_cell_length_b                          48.8145957
_cell_length_c                          48.8141953
_cell_angle_alpha                       59.9886662
_cell_angle_beta                        89.9977993
_cell_angle_gamma                       90.0482844
_cell_volume                            37519.9081385
loop_
  _atom_site_label
  _atom_site_type_symbol
  _atom_site_description
  _atom_site_fract_x
  _atom_site_fract_y
  _atom_site_fract_z
  _atom_type_partial_charge
         Zn1       Zn        Zn3+2     0.561042  0.499599  0.468132  1.483660  
         Zn2       Zn        Zn3+2     0.560964  0.499625  0.531959  1.453947  
         Zn3       Zn        Zn3+2     0.440610  0.536910  0.481395  1.442519  
         Zn4       Zn        Zn3+2     0.439030  0.463227  0.518264  1.451742  
         O1        O         O_3       0.500420  0.499853  0.499929  -1.759484           
         O2        O         O_R       0.664716  0.500099  0.476294  -0.679906           
         O3        O         O_R       0.544385  0.535530  0.537539  -0.702674           
         O4        O         O_R       0.456760  0.563395  0.436465  -0.659267           
         O5        O         O_R       0.664626  0.500121  0.523340  -0.670338           
         O6        O         O_R       0.544452  0.535522  0.426660  -0.697028           
         O7        O         O_R       0.456676  0.563446  0.499806  -0.660533           
         O8        O         O_R       0.336781  0.527560  0.486054  -0.666145           
         O9        O         O_R       0.454700  0.436372  0.500323  -0.680624           
         O10       O         O_R       0.335516  0.473179  0.513270  -0.669773           
         O11       O         O_R       0.545697  0.462829  0.463820  -0.717069           
         O12       O         O_R       0.545723  0.462848  0.573071  -0.668945           
         O13       O         O_R       0.454646  0.436363  0.563047  -0.653016           
         C1        C         C_R       0.300905  0.500504  0.499589  0.633963  
         C2        C         C_R       0.500291  0.438766  0.582649  0.649986  
         C3        C         C_R       0.500289  0.438743  0.478317  0.606027  
         C4        C         C_R       0.699980  0.500278  0.499741  0.719213  
         C5        C         C_R       0.500455  0.560054  0.416828  0.675556  
         C6        C         C_R       0.500373  0.560060  0.522805  0.685814  
         Zn5       Zn        Zn3+2     0.561430  0.679152  0.711616  1.460319  
         Zn6       Zn        Zn3+2     0.561547  0.743001  0.711587  1.482728  
         Zn7       Zn        Zn3+2     0.441069  0.729760  0.674287  1.450245  
         Zn8       Zn        Zn3+2     0.439539  0.692911  0.747972  1.451699  
         O14       O         O_3       0.500901  0.711213  0.711350  -1.765514           
         O15       O         O_R       0.665129  0.687802  0.711112  -0.667439           
         O16       O         O_R       0.545021  0.784502  0.675686  -0.695762           
         O17       O         O_R       0.457091  0.711317  0.647806  -0.662870           
         O18       O         O_R       0.665181  0.734868  0.711096  -0.679013           
         O19       O         O_R       0.544732  0.673615  0.675674  -0.701272           
         O20       O         O_R       0.457227  0.774713  0.647757  -0.660648           
         O21       O         O_R       0.337200  0.725074  0.683637  -0.665830           
         O22       O         O_R       0.455154  0.648107  0.774826  -0.651068           
         O23       O         O_R       0.336016  0.697884  0.738019  -0.666823           
         O24       O         O_R       0.546062  0.638077  0.748363  -0.680587           
         O25       O         O_R       0.546396  0.747320  0.748366  -0.716234           
         O26       O         O_R       0.455254  0.710820  0.774837  -0.677792           
         C7        C         C_R       0.301366  0.711543  0.710696  0.628419  
         C8        C         C_R       0.500964  0.732817  0.772441  0.591206  
         C9        C         C_R       0.500688  0.628475  0.772451  0.665715  
         C10       C         C_R       0.700460  0.711423  0.710937  0.712770  
         C11       C         C_R       0.500714  0.688333  0.651143  0.685186  
         C12       C         C_R       0.500990  0.794316  0.651150  0.672256  
         Zn9       Zn        Zn3+2     0.561791  0.692924  0.058752  1.428517  
         Zn10      Zn        Zn3+2     0.560193  0.729802  0.095593  1.469119  
         Zn11      Zn        Zn3+2     0.439838  0.742984  0.045044  1.422986  
         Zn12      Zn        Zn3+2     0.439743  0.679192  0.108836  1.426567  
         O27       O         O_3       0.500419  0.711228  0.077067  -1.774971           
         O28       O         O_R       0.665274  0.697958  0.063762  -0.682494           
         O29       O         O_R       0.544198  0.774730  0.077166  -0.701924           
         O30       O         O_R       0.455186  0.747310  0.003952  -0.668455           
         O31       O         O_R       0.664047  0.725131  0.090920  -0.661406           
         O32       O         O_R       0.546152  0.710864  0.013976  -0.686639           
         O33       O         O_R       0.456489  0.784532  0.039424  -0.640510           
         O34       O         O_R       0.336196  0.734856  0.053613  -0.663396           
         O35       O         O_R       0.455007  0.638098  0.113170  -0.660749           
         O36       O         O_R       0.336084  0.687759  0.100719  -0.664919           
         O37       O         O_R       0.546041  0.648122  0.076705  -0.689033           
         O38       O         O_R       0.544126  0.711358  0.140551  -0.702305           
         O39       O         O_R       0.456348  0.673596  0.150372  -0.648610           
         C13       C         C_R       0.300895  0.711383  0.077241  0.623638  
         C14       C         C_R       0.500402  0.688339  0.160169  0.675671  
         C15       C         C_R       0.500387  0.628493  0.098706  0.711889  
         C16       C         C_R       0.699967  0.711622  0.077415  0.714515  
         C17       C         C_R       0.500570  0.732851  0.994346  0.722684  
         C18       C         C_R       0.500535  0.794338  0.054160  0.671822  
         Zn13      Zn        Zn3+2     0.561426  0.102347  0.865435  1.483603  
         Zn14      Zn        Zn3+2     0.561399  0.166189  0.865419  1.452950  
         Zn15      Zn        Zn3+2     0.439473  0.152429  0.829124  1.448762  
         Zn16      Zn        Zn3+2     0.440975  0.115563  0.902806  1.442451  
         O40       O         O_3       0.500825  0.134112  0.865721  -1.756455           
         O41       O         O_R       0.665111  0.110535  0.865907  -0.672426           
         O42       O         O_R       0.546227  0.207259  0.828696  -0.669450           
         O43       O         O_R       0.455184  0.134495  0.802265  -0.675099           
         O44       O         O_R       0.665052  0.157587  0.865917  -0.665725           
         O45       O         O_R       0.546144  0.098039  0.828684  -0.721220           
         O46       O         O_R       0.455138  0.197217  0.802243  -0.654470           
         O47       O         O_R       0.336036  0.147395  0.839085  -0.674287           
         O48       O         O_R       0.457062  0.070615  0.929291  -0.656777           
         O49       O         O_R       0.337068  0.120195  0.893467  -0.672719           
         O50       O         O_R       0.544740  0.060843  0.901374  -0.698700           
         O51       O         O_R       0.544780  0.171752  0.901377  -0.700034           
         O52       O         O_R       0.457035  0.133971  0.929321  -0.657095           
         C19       C         C_R       0.301308  0.133715  0.866406  0.656691  
         C20       C         C_R       0.500739  0.156989  0.925926  0.677053  
         C21       C         C_R       0.500720  0.050994  0.925927  0.672702  
         C22       C         C_R       0.700387  0.133996  0.866075  0.694309  
         C23       C         C_R       0.500769  0.112514  0.804616  0.600861  
         C24       C         C_R       0.500816  0.216828  0.804634  0.647570  
         Zn17      Zn        Zn3+2     0.560214  0.115541  0.481429  1.476475  
         Zn18      Zn        Zn3+2     0.561802  0.152436  0.518262  1.424923  
         Zn19      Zn        Zn3+2     0.439845  0.166114  0.468252  1.431341  
         Zn20      Zn        Zn3+2     0.439815  0.102320  0.532061  1.435309  
         O53       O         O_3       0.500442  0.134086  0.499995  -1.784144           
         O54       O         O_R       0.664099  0.120260  0.486101  -0.672703           
         O55       O         O_R       0.546241  0.197196  0.500347  -0.692184           
         O56       O         O_R       0.456483  0.171664  0.426757  -0.643656           
         O57       O         O_R       0.665241  0.147439  0.513253  -0.685066           
         O58       O         O_R       0.544099  0.133974  0.436535  -0.702653           
         O59       O         O_R       0.455140  0.207234  0.463873  -0.665928           
         O60       O         O_R       0.336164  0.157493  0.476369  -0.661196           
         O61       O         O_R       0.456424  0.060802  0.537631  -0.643159           
         O62       O         O_R       0.336097  0.110402  0.523479  -0.661678           
         O63       O         O_R       0.544057  0.070614  0.499891  -0.704443           
         O64       O         O_R       0.546209  0.134500  0.563076  -0.677830           
         O65       O         O_R       0.455098  0.097975  0.573163  -0.674748           
         C25       C         C_R       0.300887  0.133859  0.499845  0.598535  
         C26       C         C_R       0.500563  0.112485  0.582709  0.716298  
         C27       C         C_R       0.500385  0.050974  0.522907  0.672377  
         C28       C         C_R       0.699976  0.133790  0.499608  0.743174  
         C29       C         C_R       0.500445  0.156960  0.416911  0.680325  
         C30       C         C_R       0.500612  0.216804  0.478355  0.719785  
         Zn21      Zn        Zn3+2     0.561419  0.345757  0.045078  1.454976  
         Zn22      Zn        Zn3+2     0.561411  0.345768  0.108910  1.472559  
         Zn23      Zn        Zn3+2     0.439491  0.382049  0.058891  1.446630  
         Zn24      Zn        Zn3+2     0.440960  0.308368  0.095734  1.452554  
         O66       O         O_3       0.500827  0.345459  0.077161  -1.757712           
         O67       O         O_R       0.665101  0.345291  0.053709  -0.663733           
         O68       O         O_R       0.546275  0.382481  0.113267  -0.716213           
         O69       O         O_R       0.455219  0.408906  0.014084  -0.649798           
         O70       O         O_R       0.665063  0.345280  0.100772  -0.669286           
         O71       O         O_R       0.546162  0.382489  0.004034  -0.681211           
         O72       O         O_R       0.455183  0.408931  0.076807  -0.674129           
         O73       O         O_R       0.336051  0.372072  0.063865  -0.673509           
         O74       O         O_R       0.457022  0.281886  0.077272  -0.660277           
         O75       O         O_R       0.337057  0.317691  0.091074  -0.676728           
         O76       O         O_R       0.544711  0.309813  0.039537  -0.698551           
         O77       O         O_R       0.544800  0.309806  0.150450  -0.693420           
         O78       O         O_R       0.457036  0.281853  0.140658  -0.663157           
         C31       C         C_R       0.301309  0.344748  0.077534  0.657199  
         C32       C         C_R       0.500753  0.285251  0.160261  0.667358  
         C33       C         C_R       0.500678  0.285256  0.054267  0.680865  
         C34       C         C_R       0.700389  0.345125  0.077324  0.694656  
         C35       C         C_R       0.500807  0.406555  0.994442  0.664886  
         C36       C         C_R       0.500871  0.406538  0.098793  0.597239  
         H1        H         H_        0.068087  0.450841  0.530263  0.163860  
         C37       C         C_R       0.962493  0.472751  0.516757  -0.208630           
         H2        H         H_        0.932796  0.450787  0.530311  0.165445  
         C38       C         C_R       0.924466  0.500720  0.499505  0.324918  
         C39       C         C_R       0.962495  0.528719  0.482227  -0.218132           
         H3        H         H_        0.932800  0.550660  0.468694  0.173123  
         C40       C         C_R       0.038394  0.528750  0.482200  -0.223340           
         H4        H         H_        0.068091  0.550714  0.468645  0.164073  
         C41       C         C_R       0.076420  0.500781  0.499451  0.385814  
         C42       C         C_R       0.038392  0.472782  0.516729  -0.219303           
         C43       C         C_1       0.845405  0.500689  0.499534  -0.205087           
         C44       C         C_1       0.155480  0.500812  0.499423  -0.276077           
         C45       C         C_1       0.221837  0.500807  0.499425  0.027815  
         C46       C         C_1       0.779049  0.500644  0.499577  -0.045953           
         H5        H         H_        0.613005  0.634251  0.606011  0.152931  
         C47       C         C_R       0.563205  0.616500  0.578341  -0.180948           
         H6        H         H_        0.612930  0.605162  0.576909  0.154315  
         C48       C         C_R       0.499798  0.614638  0.563834  0.339391  
         C49       C         C_R       0.436428  0.629137  0.565712  -0.203616           
         H7        H         H_        0.386673  0.627714  0.554370  0.157745  
         C50       C         C_R       0.436471  0.645461  0.582042  -0.205522           
         H8        H         H_        0.386748  0.656803  0.583470  0.157042  
         C51       C         C_R       0.499883  0.647332  0.596540  0.345891  
         C52       C         C_R       0.563248  0.632825  0.594672  -0.186604           
         C53       C         C_1       0.499765  0.597646  0.546800  -0.169440           
         C54       C         C_1       0.499938  0.664358  0.613540  -0.173389           
         C55       C         C_1       0.499995  0.678920  0.627530  -0.110447           
         C56       C         C_1       0.499750  0.583661  0.532233  -0.112297           
         H9        H         H_        0.385510  0.607785  0.317493  0.167570  
         C57       C         C_R       0.436276  0.634291  0.272109  -0.191544           
         H10       H         H_        0.385885  0.636870  0.259293  0.149108  
         C58       C         C_R       0.500701  0.647327  0.255793  0.347104  
         C59       C         C_R       0.564920  0.643987  0.272228  -0.200403           
         H11       H         H_        0.615474  0.654176  0.259505  0.152692  
         C60       C         C_R       0.564710  0.627665  0.304888  -0.254573           
         H12       H         H_        0.615100  0.625089  0.317704  0.182517  
         C61       C         C_R       0.500281  0.614637  0.321204  0.383434  
         C62       C         C_R       0.436066  0.617969  0.304770  -0.240269           
         C63       C         C_1       0.500912  0.664353  0.221761  -0.198649           
         C64       C         C_1       0.500054  0.597647  0.355237  -0.241492           
         C65       C         C_1       0.499845  0.583663  0.383793  -0.000673           
         C66       C         C_1       0.501036  0.678904  0.193204  -0.042046           
         H13       H         H_        0.473331  0.332429  0.647939  0.150557  
         C67       C         C_R       0.485536  0.303877  0.698036  -0.191665           
         H14       H         H_        0.473511  0.282028  0.698359  0.155125  
         C68       C         C_R       0.500968  0.303472  0.725899  0.339588  
         C69       C         C_R       0.516301  0.331371  0.725448  -0.223644           
         H15       H         H_        0.528405  0.331087  0.747267  0.159800  
         C70       C         C_R       0.516200  0.359636  0.697173  -0.219633           
         H16       H         H_        0.528225  0.381483  0.696852  0.157011  
         C71       C         C_R       0.500766  0.360041  0.669309  0.332531  
         C72       C         C_R       0.485435  0.332142  0.669760  -0.180603           
         C73       C         C_1       0.501072  0.274041  0.755344  -0.206599           
         C74       C         C_1       0.500659  0.389475  0.639866  -0.198471           
         C75       C         C_1       0.500679  0.414383  0.615355  -0.024079           
         C76       C         C_1       0.501262  0.249537  0.780259  -0.016932           
         H17       H         H_        0.611999  0.349211  0.485855  0.175518  
         C77       C         C_R       0.562848  0.313230  0.479154  -0.195900           
         H18       H         H_        0.611886  0.298810  0.485858  0.170251  
         C78       C         C_R       0.500263  0.303356  0.470600  0.302041  
         C79       C         C_R       0.437734  0.321782  0.462054  -0.222498           
         H19       H         H_        0.388649  0.314070  0.455347  0.154574  
         C80       C         C_R       0.437797  0.350048  0.462054  -0.233225           
         H20       H         H_        0.388761  0.364468  0.455346  0.175642  
         C81       C         C_R       0.500389  0.359927  0.470598  0.413996  
         C82       C         C_R       0.562912  0.341496  0.479152  -0.263892           
         C83       C         C_1       0.500208  0.273932  0.470584  -0.131488           
         C84       C         C_1       0.500465  0.389369  0.470580  -0.219469           
         C85       C         C_1       0.500642  0.414360  0.470003  0.033415  
         C86       C         C_1       0.500284  0.249508  0.470026  -0.114854           
         H21       H         H_        0.068527  0.743861  0.660760  0.165868  
         C87       C         C_R       0.962947  0.729697  0.682640  -0.215963           
         H22       H         H_        0.933236  0.743839  0.660816  0.172983  
         C88       C         C_R       0.924939  0.711656  0.710491  0.328679  
         C89       C         C_R       0.962983  0.693628  0.738311  -0.209818           
         H23       H         H_        0.933300  0.679476  0.760159  0.166329  
         C90       C         C_R       0.038880  0.693641  0.738280  -0.224916           
         H24       H         H_        0.068591  0.679499  0.760103  0.167381  
         C91       C         C_R       0.076888  0.711682  0.710428  0.390110  
         C92       C         C_R       0.038845  0.729709  0.682608  -0.227358           
         C93       C         C_1       0.845881  0.711642  0.710525  -0.212271           
         C94       C         C_1       0.155945  0.711695  0.710395  -0.279574           
         C95       C         C_1       0.222300  0.711687  0.710399  0.031496  
         C96       C         C_1       0.779526  0.711619  0.710571  -0.039782           
         H25       H         H_        0.618031  0.738420  0.855527  0.183511  
         C97       C         C_R       0.566291  0.739367  0.894331  -0.193342           
         H26       H         H_        0.617643  0.738436  0.905917  0.156334  
         C98       C         C_R       0.500595  0.740571  0.907811  0.304226  
         C99       C         C_R       0.435117  0.741756  0.892997  -0.220625           
         H27       H         H_        0.383595  0.742699  0.903537  0.160710  
         C100      C         C_R       0.435335  0.741745  0.864737  -0.252325           
         H28       H         H_        0.383983  0.742680  0.853148  0.180076  
         C101      C         C_R       0.501031  0.740551  0.851251  0.426602  
         C102      C         C_R       0.566508  0.739358  0.866070  -0.266383           
         C103      C         C_1       0.500371  0.740600  0.937230  -0.130483           
         C104      C         C_1       0.501258  0.740560  0.821814  -0.233845           
         C105      C         C_1       0.501427  0.741129  0.796826  0.046984  
         C106      C         C_1       0.500191  0.741185  0.961640  -0.108434           
         H29       H         H_        0.614243  0.893539  0.584100  0.185806  
         C107      C         C_R       0.564455  0.938972  0.566107  -0.202694           
         H30       H         H_        0.614422  0.951738  0.555025  0.155127  
         C108      C         C_R       0.500873  0.955351  0.563912  0.346005  
         C109      C         C_R       0.437195  0.938980  0.578087  -0.196632           
         H31       H         H_        0.387305  0.951754  0.576407  0.150411  
         C110      C         C_R       0.437095  0.906320  0.594403  -0.234480           
         H32       H         H_        0.387125  0.893554  0.605481  0.165925  
         C111      C         C_R       0.500671  0.889941  0.596589  0.391445  
         C112      C         C_R       0.564354  0.906312  0.582423  -0.260245           
         C113      C         C_1       0.500967  0.989382  0.546894  -0.196306           
         C114      C         C_1       0.500557  0.855909  0.613573  -0.253708           
         C115      C         C_1       0.500424  0.827354  0.627549  0.009495  
         C116      C         C_1       0.500980  0.017939  0.532349  -0.044169           
         H33       H         H_        0.428054  0.518975  0.834598  0.158897  
         C117      C         C_R       0.460025  0.488358  0.882613  -0.216167           
         H34       H         H_        0.428115  0.468581  0.885015  0.160886  
         C118      C         C_R       0.500756  0.485313  0.907822  0.324940  
         C119      C         C_R       0.541442  0.510572  0.904719  -0.217780           
         H35       H         H_        0.573383  0.508216  0.924458  0.173470  
         C120      C         C_R       0.541408  0.538837  0.876442  -0.213050           
         H36       H         H_        0.573322  0.558614  0.874038  0.171860  
         C121      C         C_R       0.500688  0.541879  0.851231  0.319339  
         C122      C         C_R       0.459991  0.516621  0.854337  -0.209983           
         C123      C         C_1       0.500814  0.455877  0.937262  -0.196335           
         C124      C         C_1       0.500675  0.571306  0.821782  -0.192027           
         C125      C         C_1       0.501014  0.595767  0.796828  -0.028674           
         C126      C         C_1       0.501213  0.430933  0.961735  -0.025852           
         H37       H         H_        0.068427  0.749508  0.087332  0.178897  
         C127      C         C_R       0.962678  0.732925  0.083043  -0.203895           
         H38       H         H_        0.933136  0.749587  0.087387  0.167171  
         C128      C         C_R       0.924454  0.711731  0.077536  0.326575  
         C129      C         C_R       0.962284  0.690492  0.071998  -0.204006           
         H39       H         H_        0.932434  0.673865  0.067678  0.163841  
         C130      C         C_R       0.038183  0.690446  0.071968  -0.223160           
         H40       H         H_        0.067725  0.673785  0.067624  0.173635  
         C131      C         C_R       0.076408  0.711641  0.077474  0.373694  
         C132      C         C_R       0.038577  0.732881  0.083012  -0.238897           
         C133      C         C_1       0.845393  0.711778  0.077568  -0.206918           
         C134      C         C_1       0.155470  0.711595  0.077442  -0.285885           
         C135      C         C_1       0.221826  0.711548  0.077405  0.058499  
         C136      C         C_1       0.779036  0.711797  0.077582  -0.063376           
         H41       H         H_        0.391121  0.951602  0.966819  0.161004  
         C137      C         C_R       0.439524  0.906243  0.996317  -0.191584           
         H42       H         H_        0.391491  0.893402  0.995893  0.148955  
         C138      C         C_R       0.500939  0.889960  0.013175  0.344755  
         C139      C         C_R       0.562154  0.906426  0.013663  -0.205772           
         H43       H         H_        0.610346  0.893729  0.026850  0.155934  
         C140      C         C_R       0.561947  0.939086  0.997347  -0.264521           
         H44       H         H_        0.609978  0.951926  0.997775  0.191534  
         C141      C         C_R       0.500524  0.955370  0.980498  0.384006  
         C142      C         C_R       0.439317  0.938904  0.980002  -0.229617           
         C143      C         C_1       0.501140  0.855928  0.030192  -0.193816           
         C144      C         C_1       0.500294  0.989402  0.963514  -0.247454           
         C145      C         C_1       0.500048  0.017958  0.949533  0.008938  
         C146      C         C_1       0.501228  0.827371  0.044728  -0.048991           
         H45       H         H_        0.385528  0.533659  0.116510  0.156309  
         C147      C         C_R       0.436334  0.496602  0.112116  -0.238087           
         H46       H         H_        0.385970  0.483253  0.116528  0.176400  
         C148      C         C_R       0.500804  0.485351  0.106509  0.417174  
         C149      C         C_R       0.565021  0.502415  0.100882  -0.268894           
         H47       H         H_        0.615581  0.493625  0.096482  0.180980  
         C150      C         C_R       0.564773  0.530685  0.100871  -0.197292           
         H48       H         H_        0.615138  0.544033  0.096463  0.164574  
         C151      C         C_R       0.500308  0.541931  0.106488  0.307848  
         C152      C         C_R       0.436087  0.524871  0.112106  -0.226390           
         C153      C         C_1       0.501069  0.455904  0.106537  -0.219574           
         C154      C         C_1       0.500057  0.571360  0.106495  -0.137078           
         C155      C         C_1       0.499925  0.595784  0.107052  -0.101139           
         C156      C         C_1       0.501339  0.430907  0.107127  0.036293  
         H49       H         H_        0.068334  0.098773  0.852567  0.169833  
         C157      C         C_R       0.962808  0.114175  0.858686  -0.208003           
         H50       H         H_        0.933043  0.098870  0.852486  0.163938  
         C158      C         C_R       0.924870  0.133741  0.866544  0.342824  
         C159      C         C_R       0.962985  0.153252  0.874447  -0.213963           
         H51       H         H_        0.933357  0.168600  0.880612  0.166870  
         C160      C         C_R       0.038883  0.153197  0.874493  -0.221784           
         H52       H         H_        0.068648  0.168503  0.880694  0.172186  
         C161      C         C_R       0.076822  0.133632  0.866635  0.354612  
         C162      C         C_R       0.038707  0.114121  0.858732  -0.216252           
         C163      C         C_1       0.845810  0.133798  0.866495  -0.224260           
         C164      C         C_1       0.155882  0.133576  0.866682  -0.260749           
         C165      C         C_1       0.222239  0.133537  0.866699  0.027558  
         C166      C         C_1       0.779454  0.133855  0.866433  -0.043186           
         H53       H         H_        0.616305  0.096913  0.676161  0.148053  
         C167      C         C_R       0.565693  0.100378  0.713802  -0.247496           
         H54       H         H_        0.616604  0.096921  0.726556  0.180936  
         C168      C         C_R       0.500941  0.104785  0.725804  0.418488  
         C169      C         C_R       0.436026  0.109195  0.709499  -0.266665           
         H55       H         H_        0.385245  0.112653  0.718879  0.183289  
         C170      C         C_R       0.435858  0.109190  0.681237  -0.211594           
         H56       H         H_        0.384945  0.112643  0.668485  0.162391  
         C171      C         C_R       0.500606  0.104774  0.669239  0.309874  
         C172      C         C_R       0.565525  0.100374  0.685539  -0.199074           
         C173      C         C_1       0.501110  0.104772  0.755243  -0.227645           
         C174      C         C_1       0.500426  0.104751  0.639818  -0.138819           
         C175      C         C_1       0.500209  0.104159  0.615412  -0.094935           
         C176      C         C_1       0.501158  0.104203  0.780230  0.033692  
         H57       H         H_        0.388560  0.215354  0.024920  0.158026  
         C177      C         C_R       0.437575  0.198597  0.996273  -0.205231           
         H58       H         H_        0.388596  0.186270  0.995815  0.156877  
         C178      C         C_R       0.500019  0.197984  0.980535  0.344128  
         C179      C         C_R       0.562436  0.213745  0.981167  -0.184182           
         H59       H         H_        0.611433  0.213305  0.968855  0.154335  
         C180      C         C_R       0.562415  0.230067  0.997500  -0.184827           
         H60       H         H_        0.611396  0.242391  0.997961  0.153874  
         C181      C         C_R       0.499978  0.230672  0.013246  0.347494  
         C182      C         C_R       0.437555  0.214919  0.012606  -0.206928           
         C183      C         C_1       0.500052  0.180960  0.963532  -0.175147           
         C184      C         C_1       0.499969  0.247662  0.030282  -0.178660           
         C185      C         C_1       0.499983  0.261650  0.044845  -0.105945           
         C186      C         C_1       0.500093  0.166404  0.949537  -0.105069           
         H61       H         H_        0.067914  0.087503  0.540190  0.164849  
         C187      C         C_R       0.962391  0.107787  0.522290  -0.205419           
         H62       H         H_        0.932622  0.087499  0.540124  0.166611  
         C188      C         C_R       0.924458  0.133647  0.499518  0.308907  
         C189      C         C_R       0.962577  0.159509  0.476783  -0.205271           
         H63       H         H_        0.932953  0.179795  0.458919  0.166459  
         C190      C         C_R       0.038475  0.159511  0.476820  -0.230733           
         H64       H         H_        0.068244  0.179799  0.458985  0.167684  
         C191      C         C_R       0.076408  0.133651  0.499592  0.403982  
         C192      C         C_R       0.038289  0.107789  0.522327  -0.228640           
         C193      C         C_1       0.845399  0.133645  0.499480  -0.183081           
         C194      C         C_1       0.155466  0.133653  0.499631  -0.302150           
         C195      C         C_1       0.221821  0.133664  0.499671  0.063730  
         C196      C         C_1       0.779043  0.133656  0.499454  -0.070954           
         H65       H         H_        0.532638  0.270752  0.259421  0.183795  
         C197      C         C_R       0.518651  0.229593  0.304881  -0.229507           
         H66       H         H_        0.532887  0.241672  0.317624  0.191228  
         C198      C         C_R       0.500654  0.197884  0.321290  0.327972  
         C199      C         C_R       0.482508  0.182540  0.304951  -0.229838           
         H67       H         H_        0.468385  0.157699  0.317747  0.177167  
         C200      C         C_R       0.482367  0.198858  0.272291  -0.210217           
         H68       H         H_        0.468132  0.186776  0.259550  0.175296  
         C201      C         C_R       0.500371  0.230565  0.255881  0.384695  
         C202      C         C_R       0.518511  0.245911  0.272220  -0.260013           
         C203      C         C_1       0.500814  0.180878  0.355322  -0.197763           
         C204      C         C_1       0.500234  0.247565  0.221849  -0.262762           
         C205      C         C_1       0.500122  0.261632  0.193292  0.009196  
         C206      C         C_1       0.501050  0.166386  0.383879  -0.039386           
         H69       H         H_        0.933112  0.332519  0.125995  0.161474  
         C207      C         C_R       0.038746  0.337768  0.104754  -0.231122           
         H70       H         H_        0.068402  0.332419  0.126049  0.174016  
         C208      C         C_R       0.076823  0.344530  0.077638  0.365184  
         C209      C         C_R       0.038845  0.351348  0.050493  -0.229654           
         H71       H         H_        0.068580  0.356654  0.029221  0.173826  
         C210      C         C_R       0.962947  0.351404  0.050463  -0.204527           
         H72       H         H_        0.933289  0.356753  0.029168  0.161649  
         C211      C         C_R       0.924870  0.344642  0.077578  0.331893  
         C212      C         C_R       0.962847  0.337824  0.104724  -0.196480           
         C213      C         C_1       0.155883  0.344473  0.077669  -0.264477           
         C214      C         C_1       0.845811  0.344702  0.077546  -0.214926           
         C215      C         C_1       0.779455  0.344772  0.077507  -0.050359           
         C216      C         C_1       0.222239  0.344446  0.077680  0.030855 
loop_
  _geom_bond_atom_site_label_1
  _geom_bond_atom_site_label_2
  _geom_bond_distance
  _geom_bond_site_symmetry_2
  _ccdc_geom_bond_type
         Zn1       O1        1.909     .         S         
         Zn1       O2        1.930     .         S         
         Zn1       O6        1.927     .         S         
         Zn1       O11       1.929     .         S         
         Zn2       O1        1.908     .         S         
         Zn2       O3        1.928     .         S         
         Zn2       O5        1.929     .         S         
         Zn2       O12       1.929     .         S         
         Zn3       O1        1.908     .         S         
         Zn3       O4        1.932     .         S         
         Zn3       O7        1.933     .         S         
         Zn3       O8        1.929     .         S         
         Zn4       O1        1.908     .         S         
         Zn4       O9        1.928     .         S         
         Zn4       O10       1.929     .         S         
         Zn4       O13       1.927     .         S         
         C1        C45       1.438     .         S         
         C2        C75       1.437     .         S         
         C3        C85       1.437     .         S         
         C4        C46       1.438     .         S         
         C5        C65       1.439     .         S         
         C6        C56       1.439     .         S         
         Zn5       O14       1.909     .         S         
         Zn5       O15       1.929     .         S         
         Zn5       O19       1.928     .         S         
         Zn5       O24       1.928     .         S         
         Zn6       O14       1.908     .         S         
         Zn6       O16       1.927     .         S         
         Zn6       O18       1.929     .         S         
         Zn6       O25       1.929     .         S         
         Zn7       O14       1.908     .         S         
         Zn7       O17       1.932     .         S         
         Zn7       O20       1.933     .         S         
         Zn7       O21       1.929     .         S         
         Zn8       O14       1.908     .         S         
         Zn8       O22       1.928     .         S         
         Zn8       O23       1.929     .         S         
         Zn8       O26       1.927     .         S         
         C7        C95       1.438     .         S         
         C8        C105      1.437     .         S         
         C9        C125      1.437     .         S         
         C10       C96       1.438     .         S         
         C11       C55       1.439     .         S         
         C12       C115      1.439     .         S         
         Zn9       O27       1.909     .         S         
         Zn9       O28       1.929     .         S         
         Zn9       O32       1.926     .         S         
         Zn9       O37       1.927     .         S         
         Zn10      O27       1.908     .         S         
         Zn10      O29       1.932     .         S         
         Zn10      O31       1.930     .         S         
         Zn10      O38       1.933     .         S         
         Zn11      O27       1.908     .         S         
         Zn11      O30       1.929     .         S         
         Zn11      O33       1.929     .         S         
         Zn11      O34       1.928     .         S         
         Zn12      O27       1.908     .         S         
         Zn12      O35       1.929     .         S         
         Zn12      O36       1.929     .         S         
         Zn12      O39       1.929     .         S         
         C13       C135      1.438     .         S         
         C14       C66       1.439     .         S         
         C15       C155      1.437     .         S         
         C16       C136      1.438     .         S         
         C17       C106      1.437     .         S         
         C18       C146      1.439     .         S         
         Zn13      O40       1.909     .         S         
         Zn13      O41       1.929     .         S         
         Zn13      O45       1.928     .         S         
         Zn13      O50       1.928     .         S         
         Zn14      O40       1.908     .         S         
         Zn14      O42       1.927     .         S         
         Zn14      O44       1.929     .         S         
         Zn14      O51       1.929     .         S         
         Zn15      O40       1.908     .         S         
         Zn15      O43       1.928     .         S         
         Zn15      O46       1.927     .         S         
         Zn15      O47       1.927     .         S         
         Zn16      O40       1.908     .         S         
         Zn16      O48       1.933     .         S         
         Zn16      O49       1.930     .         S         
         Zn16      O52       1.932     .         S         
         C19       C165      1.438     .         S         
         C20       C186      1.439     .         S         
         C21       C145      1.439     .         S         
         C22       C166      1.438     .         S         
         C23       C176      1.437     .         S         
         C24       C76       1.437     .         S         
         Zn17      O53       1.909     .         S         
         Zn17      O54       1.930     .         S         
         Zn17      O58       1.930     .         S         
         Zn17      O63       1.931     .         S         
         Zn18      O53       1.908     .         S         
         Zn18      O55       1.926     .         S         
         Zn18      O57       1.928     .         S         
         Zn18      O64       1.928     .         S         
         Zn19      O53       1.908     .         S         
         Zn19      O56       1.928     .         S         
         Zn19      O59       1.929     .         S         
         Zn19      O60       1.929     .         S         
         Zn20      O53       1.908     .         S         
         Zn20      O61       1.929     .         S         
         Zn20      O62       1.930     .         S         
         Zn20      O65       1.929     .         S         
         C25       C195      1.438     .         S         
         C26       C175      1.437     .         S         
         C27       C116      1.439     .         S         
         C28       C196      1.438     .         S         
         C29       C206      1.439     .         S         
         C30       C86       1.437     .         S         
         Zn21      O66       1.909     .         S         
         Zn21      O67       1.930     .         S         
         Zn21      O71       1.927     .         S         
         Zn21      O76       1.928     .         S         
         Zn22      O66       1.908     .         S         
         Zn22      O68       1.927     .         S         
         Zn22      O70       1.929     .         S         
         Zn22      O77       1.929     .         S         
         Zn23      O66       1.908     .         S         
         Zn23      O69       1.928     .         S         
         Zn23      O72       1.928     .         S         
         Zn23      O73       1.927     .         S         
         Zn24      O66       1.908     .         S         
         Zn24      O74       1.932     .         S         
         Zn24      O75       1.930     .         S         
         Zn24      O78       1.932     .         S         
         C31       C216      1.438     .         S         
         C32       C205      1.439     .         S         
         C33       C185      1.439     .         S         
         C34       C215      1.438     .         S         
         C35       C126      1.437     .         S         
         C36       C156      1.437     .         S         
         H1        C42       1.081     .         S         
         C37       H2        1.081     .         S         
         C38       C43       1.438     .         S         
         C39       H3        1.081     .         S         
         C40       H4        1.081     .         S         
         C41       C44       1.438     .         S         
         H5        C52       1.081     .         S         
         C47       H6        1.081     .         S         
         C48       C53       1.439     .         S         
         C49       H7        1.081     .         S         
         C50       H8        1.081     .         S         
         C51       C54       1.439     .         S         
         H9        C62       1.081     .         S         
         C57       H10       1.081     .         S         
         C58       C63       1.439     .         S         
         C59       H11       1.081     .         S         
         C60       H12       1.081     .         S         
         C61       C64       1.439     .         S         
         H13       C72       1.081     .         S         
         C67       H14       1.081     .         S         
         C68       C73       1.437     .         S         
         C69       H15       1.081     .         S         
         C70       H16       1.081     .         S         
         C71       C74       1.437     .         S         
         H17       C82       1.081     .         S         
         C77       H18       1.081     .         S         
         C78       C83       1.437     .         S         
         C79       H19       1.081     .         S         
         C80       H20       1.081     .         S         
         C81       C84       1.437     .         S         
         H21       C92       1.081     .         S         
         C87       H22       1.081     .         S         
         C88       C93       1.438     .         S         
         C89       H23       1.081     .         S         
         C90       H24       1.081     .         S         
         C91       C94       1.438     .         S         
         H25       C102      1.081     .         S         
         C97       H26       1.081     .         S         
         C98       C103      1.437     .         S         
         C99       H27       1.081     .         S         
         C100      H28       1.081     .         S         
         C101      C104      1.437     .         S         
         H29       C112      1.081     .         S         
         C107      H30       1.081     .         S         
         C108      C113      1.439     .         S         
         C109      H31       1.081     .         S         
         C110      H32       1.081     .         S         
         C111      C114      1.439     .         S         
         H33       C122      1.081     .         S         
         C117      H34       1.081     .         S         
         C118      C123      1.437     .         S         
         C119      H35       1.081     .         S         
         C120      H36       1.081     .         S         
         C121      C124      1.437     .         S         
         H37       C132      1.081     .         S         
         C127      H38       1.081     .         S         
         C128      C133      1.438     .         S         
         C129      H39       1.081     .         S         
         C130      H40       1.081     .         S         
         C131      C134      1.438     .         S         
         H41       C142      1.081     .         S         
         C137      H42       1.081     .         S         
         C138      C143      1.439     .         S         
         C139      H43       1.081     .         S         
         C140      H44       1.081     .         S         
         C141      C144      1.439     .         S         
         H45       C152      1.081     .         S         
         C147      H46       1.081     .         S         
         C148      C153      1.437     .         S         
         C149      H47       1.081     .         S         
         C150      H48       1.081     .         S         
         C151      C154      1.437     .         S         
         H49       C162      1.081     .         S         
         C157      H50       1.081     .         S         
         C158      C163      1.438     .         S         
         C159      H51       1.081     .         S         
         C160      H52       1.081     .         S         
         C161      C164      1.438     .         S         
         H53       C172      1.081     .         S         
         C167      H54       1.081     .         S         
         C168      C173      1.437     .         S         
         C169      H55       1.081     .         S         
         C170      H56       1.081     .         S         
         C171      C174      1.437     .         S         
         H57       C182      1.081     .         S         
         C177      H58       1.081     .         S         
         C178      C183      1.439     .         S         
         C179      H59       1.081     .         S         
         C180      H60       1.081     .         S         
         C181      C184      1.439     .         S         
         H61       C192      1.081     .         S         
         C187      H62       1.081     .         S         
         C188      C193      1.438     .         S         
         C189      H63       1.081     .         S         
         C190      H64       1.081     .         S         
         C191      C194      1.438     .         S         
         H65       C202      1.081     .         S         
         C197      H66       1.081     .         S         
         C198      C203      1.439     .         S         
         C199      H67       1.081     .         S         
         C200      H68       1.081     .         S         
         C201      C204      1.439     .         S         
         H69       C212      1.081     .         S         
         C207      H70       1.081     .         S         
         C208      C213      1.438     .         S         
         C209      H71       1.081     .         S         
         C210      H72       1.081     .         S         
         C211      C214      1.438     .         S         
         O2        C4        1.316     .         A         
         O3        C6        1.316     .         A         
         O4        C5        1.317     .         A         
         O5        C4        1.316     .         A         
         O6        C5        1.316     .         A         
         O7        C6        1.317     .         A         
         O8        C1        1.316     .         A         
         O9        C3        1.315     .         A         
         O10       C1        1.316     .         A         
         O11       C3        1.316     .         A         
         O12       C2        1.316     .         A         
         O13       C2        1.315     .         A         
         O15       C10       1.316     .         A         
         O16       C12       1.316     .         A         
         O17       C11       1.317     .         A         
         O18       C10       1.316     .         A         
         O19       C11       1.316     .         A         
         O20       C12       1.317     .         A         
         O21       C7        1.316     .         A         
         O22       C9        1.315     .         A         
         O23       C7        1.316     .         A         
         O24       C9        1.316     .         A         
         O25       C8        1.316     .         A         
         O26       C8        1.315     .         A         
         O28       C16       1.316     .         A         
         O29       C18       1.317     .         A         
         O30       C17       1.316     1_554     A         
         O31       C16       1.316     .         A         
         O32       C17       1.315     1_554     A         
         O33       C18       1.316     .         A         
         O34       C13       1.316     .         A         
         O35       C15       1.316     .         A         
         O36       C13       1.316     .         A         
         O37       C15       1.315     .         A         
         O38       C14       1.317     .         A         
         O39       C14       1.316     .         A         
         C17       O30       1.316     1_556     A         
         C17       O32       1.315     1_556     A         
         O41       C22       1.316     .         A         
         O42       C24       1.316     .         A         
         O43       C23       1.315     .         A         
         O44       C22       1.316     .         A         
         O45       C23       1.316     .         A         
         O46       C24       1.315     .         A         
         O47       C19       1.316     .         A         
         O48       C21       1.317     .         A         
         O49       C19       1.316     .         A         
         O50       C21       1.316     .         A         
         O51       C20       1.316     .         A         
         O52       C20       1.317     .         A         
         O54       C28       1.316     .         A         
         O55       C30       1.315     .         A         
         O56       C29       1.316     .         A         
         O57       C28       1.316     .         A         
         O58       C29       1.316     .         A         
         O59       C30       1.316     .         A         
         O60       C25       1.316     .         A         
         O61       C27       1.316     .         A         
         O62       C25       1.316     .         A         
         O63       C27       1.317     .         A         
         O64       C26       1.315     .         A         
         O65       C26       1.316     .         A         
         O67       C34       1.316     .         A         
         O68       C36       1.316     .         A         
         O69       C35       1.315     1_554     A         
         O70       C34       1.316     .         A         
         O71       C35       1.316     1_554     A         
         O72       C36       1.315     .         A         
         O73       C31       1.316     .         A         
         O74       C33       1.317     .         A         
         O75       C31       1.316     .         A         
         O76       C33       1.316     .         A         
         O77       C32       1.316     .         A         
         O78       C32       1.317     .         A         
         C35       O69       1.315     1_556     A         
         C35       O71       1.316     1_556     A         
         C37       C38       1.379     .         A         
         C37       C42       1.380     1_655     A         
         C38       C39       1.379     .         A         
         C39       C40       1.380     1_655     A         
         C40       C39       1.380     1_455     A         
         C40       C41       1.379     .         A         
         C41       C42       1.379     .         A         
         C42       C37       1.380     1_455     A         
         C47       C48       1.380     .         A         
         C47       C52       1.381     .         A         
         C48       C49       1.380     .         A         
         C49       C50       1.381     .         A         
         C50       C51       1.380     .         A         
         C51       C52       1.380     .         A         
         C57       C58       1.380     .         A         
         C57       C62       1.381     .         A         
         C58       C59       1.380     .         A         
         C59       C60       1.381     .         A         
         C60       C61       1.380     .         A         
         C61       C62       1.380     .         A         
         C67       C68       1.379     .         A         
         C67       C72       1.380     .         A         
         C68       C69       1.379     .         A         
         C69       C70       1.380     .         A         
         C70       C71       1.379     .         A         
         C71       C72       1.379     .         A         
         C77       C78       1.379     .         A         
         C77       C82       1.380     .         A         
         C78       C79       1.379     .         A         
         C79       C80       1.380     .         A         
         C80       C81       1.379     .         A         
         C81       C82       1.379     .         A         
         C87       C88       1.379     .         A         
         C87       C92       1.380     1_655     A         
         C88       C89       1.379     .         A         
         C89       C90       1.380     1_655     A         
         C90       C89       1.380     1_455     A         
         C90       C91       1.379     .         A         
         C91       C92       1.379     .         A         
         C92       C87       1.380     1_455     A         
         C97       C98       1.379     .         A         
         C97       C102      1.380     .         A         
         C98       C99       1.379     .         A         
         C99       C100      1.380     .         A         
         C100      C101      1.379     .         A         
         C101      C102      1.379     .         A         
         C107      C108      1.380     .         A         
         C107      C112      1.381     .         A         
         C108      C109      1.380     .         A         
         C109      C110      1.381     .         A         
         C110      C111      1.380     .         A         
         C111      C112      1.380     .         A         
         C117      C118      1.379     .         A         
         C117      C122      1.380     .         A         
         C118      C119      1.379     .         A         
         C119      C120      1.380     .         A         
         C120      C121      1.379     .         A         
         C121      C122      1.379     .         A         
         C127      C128      1.379     .         A         
         C127      C132      1.380     1_655     A         
         C128      C129      1.379     .         A         
         C129      C130      1.380     1_655     A         
         C130      C129      1.380     1_455     A         
         C130      C131      1.379     .         A         
         C131      C132      1.379     .         A         
         C132      C127      1.380     1_455     A         
         C137      C138      1.380     1_556     A         
         C137      C142      1.381     .         A         
         C138      C137      1.380     1_554     A         
         C138      C139      1.380     .         A         
         C139      C140      1.381     1_554     A         
         C140      C139      1.381     1_556     A         
         C140      C141      1.380     .         A         
         C141      C142      1.380     .         A         
         C147      C148      1.379     .         A         
         C147      C152      1.380     .         A         
         C148      C149      1.379     .         A         
         C149      C150      1.380     .         A         
         C150      C151      1.379     .         A         
         C151      C152      1.379     .         A         
         C157      C158      1.379     .         A         
         C157      C162      1.380     1_655     A         
         C158      C159      1.379     .         A         
         C159      C160      1.380     1_655     A         
         C160      C159      1.380     1_455     A         
         C160      C161      1.379     .         A         
         C161      C162      1.379     .         A         
         C162      C157      1.380     1_455     A         
         C167      C168      1.379     .         A         
         C167      C172      1.380     .         A         
         C168      C169      1.379     .         A         
         C169      C170      1.380     .         A         
         C170      C171      1.379     .         A         
         C171      C172      1.379     .         A         
         C177      C178      1.380     .         A         
         C177      C182      1.381     1_556     A         
         C178      C179      1.380     .         A         
         C179      C180      1.381     .         A         
         C180      C181      1.380     1_556     A         
         C181      C180      1.380     1_554     A         
         C181      C182      1.380     .         A         
         C182      C177      1.381     1_554     A         
         C187      C188      1.379     .         A         
         C187      C192      1.380     1_655     A         
         C188      C189      1.379     .         A         
         C189      C190      1.380     1_655     A         
         C190      C189      1.380     1_455     A         
         C190      C191      1.379     .         A         
         C191      C192      1.379     .         A         
         C192      C187      1.380     1_455     A         
         C197      C198      1.380     .         A         
         C197      C202      1.381     .         A         
         C198      C199      1.380     .         A         
         C199      C200      1.381     .         A         
         C200      C201      1.380     .         A         
         C201      C202      1.380     .         A         
         C207      C208      1.379     .         A         
         C207      C212      1.380     1_455     A         
         C208      C209      1.379     .         A         
         C209      C210      1.380     1_455     A         
         C210      C209      1.380     1_655     A         
         C210      C211      1.379     .         A         
         C211      C212      1.379     .         A         
         C212      C207      1.380     1_655     A         
         C43       C46       1.207     .         T         
         C44       C45       1.207     .         T         
         C53       C56       1.207     .         T         
         C54       C55       1.207     .         T         
         C63       C66       1.207     .         T         
         C64       C65       1.207     .         T         
         C73       C76       1.206     .         T         
         C74       C75       1.206     .         T         
         C83       C86       1.206     .         T         
         C84       C85       1.206     .         T         
         C93       C96       1.207     .         T         
         C94       C95       1.207     .         T         
         C103      C106      1.206     .         T         
         C104      C105      1.206     .         T         
         C113      C116      1.207     1_565     T         
         C114      C115      1.207     .         T         
         C116      C113      1.207     1_545     T         
         C123      C126      1.206     .         T         
         C124      C125      1.206     .         T         
         C133      C136      1.207     .         T         
         C134      C135      1.207     .         T         
         C143      C146      1.207     .         T         
         C144      C145      1.207     1_565     T         
         C145      C144      1.207     1_545     T         
         C153      C156      1.206     .         T         
         C154      C155      1.206     .         T         
         C163      C166      1.207     .         T         
         C164      C165      1.207     .         T         
         C173      C176      1.206     .         T         
         C174      C175      1.206     .         T         
         C183      C186      1.207     .         T         
         C184      C185      1.207     .         T         
         C193      C196      1.207     .         T         
         C194      C195      1.207     .         T         
         C203      C206      1.207     .         T         
         C204      C205      1.207     .         T         
         C213      C216      1.207     .         T         
         C214      C215      1.207     .         T 