
##########################################################################
#               Crystallographic Information Format file
#               Produced by PyCifRW module
#
#  This is a CIF file.  CIF has been adopted by the International
#  Union of Crystallography as the standard for data archiving and
#  transmission.
#
#  For information on this file format, follow the CIF links at
#  http://www.iucr.org
##########################################################################

data_str_m1_o4_o58_ith-d

_audit_creation_date                    2014-11-07T14:51:01-0500
_audit_creation_method                  'faps 1.5.0.0'
_symmetry_space_group_name_H-M          P1
_symmetry_Int_Tables_number             1
_space_group_crystal_system             triclinic
loop_
  _symmetry_equiv_pos_as_xyz
         'x,y,z' 
_cell_length_a                          28.6784464
_cell_length_b                          28.7082706
_cell_length_c                          28.6773479
_cell_angle_alpha                       90.0113992
_cell_angle_beta                        89.9865072
_cell_angle_gamma                       89.9928908
_cell_volume                            23610.3059061
loop_
  _atom_site_label
  _atom_site_type_symbol
  _atom_site_description
  _atom_site_fract_x
  _atom_site_fract_y
  _atom_site_fract_z
  _atom_type_partial_charge
         Zn1       Zn        Zn3+2     0.545458  0.457007  0.506724  1.299702  
         Zn2       Zn        Zn3+2     0.544697  0.557549  0.494276  1.309618  
         Zn3       Zn        Zn3+2     0.454550  0.500498  0.452409  1.293685  
         Zn4       Zn        Zn3+2     0.456381  0.512855  0.552877  1.313266  
         O1        O         O_3       0.500297  0.507077  0.501778  -1.510206           
         O2        O         O_R       0.616891  0.468456  0.503624  -0.692905           
         O3        O         O_R       0.535320  0.581365  0.432767  -0.596257           
         O4        O         O_R       0.463549  0.440447  0.426436  -0.577499           
         O5        O         O_R       0.616480  0.546672  0.498700  -0.692689           
         O6        O         O_R       0.528782  0.409157  0.462557  -0.594696           
         O7        O         O_R       0.470206  0.543325  0.403182  -0.586955           
         O8        O         O_R       0.383320  0.503401  0.464591  -0.688700           
         O9        O         O_R       0.474901  0.469181  0.600982  -0.602878           
         O10       O         O_R       0.384375  0.508276  0.542929  -0.695272           
         O11       O         O_R       0.537050  0.430475  0.566482  -0.576882           
         O12       O         O_R       0.527195  0.606864  0.536980  -0.597512           
         O13       O         O_R       0.465258  0.573833  0.577556  -0.593607           
         C1        C         C_R       0.358855  0.505542  0.504072  0.624020  
         C2        C         C_R       0.493631  0.608913  0.568631  0.463720  
         C3        C         C_R       0.508793  0.437858  0.601883  0.457290  
         C4        C         C_R       0.641709  0.507655  0.501493  0.626753  
         C5        C         C_R       0.493866  0.406565  0.432563  0.448348  
         C6        C         C_R       0.504838  0.573423  0.399176  0.462416  
         C7        C         C_R       0.924349  0.266556  0.215296  0.780567  
         C8        C         C_R       0.960923  0.333479  0.242663  0.818109  
         C9        C         C_R       0.990413  0.294805  0.177822  0.815523  
         N1        N         N_R       0.926699  0.301591  0.246415  -0.724068           
         N2        N         N_R       0.992992  0.329467  0.208904  -0.780701           
         N3        N         N_R       0.956377  0.263303  0.181422  -0.697419           
         C10       C         C_R       0.867771  0.221718  0.262566  0.040610  
         C11       C         C_R       0.843802  0.180760  0.270278  -0.239656           
         C12       C         C_R       0.845130  0.145690  0.237295  0.216967  
         C13       C         C_R       0.868365  0.152564  0.195819  -0.212380           
         C14       C         C_R       0.891678  0.193319  0.187929  0.006707  
         C15       C         C_R       0.892479  0.227622  0.221617  -0.205149           
         H1        H         H_        0.825358  0.176006  0.302795  0.145622  
         H2        H         H_        0.868996  0.126253  0.168899  0.145221  
         H3        H         H_        0.868312  0.248023  0.289518  0.082096  
         H4        H         H_        0.910076  0.197028  0.155268  0.078847  
         C16       C         C_R       0.028884  0.248657  0.116359  -0.063598           
         C17       C         C_R       0.067353  0.239549  0.089085  -0.185303           
         C18       C         C_R       0.105098  0.269209  0.090657  0.222978  
         C19       C         C_R       0.103572  0.308746  0.118073  -0.253530           
         C20       C         C_R       0.065283  0.317961  0.144916  0.059093  
         C21       C         C_R       0.028160  0.287604  0.144804  -0.186440           
         H5        H         H_        0.067952  0.208655  0.067559  0.135265  
         H6        H         H_        0.132241  0.333096  0.119457  0.150849  
         H7        H         H_        0.000132  0.224346  0.115822  0.119127  
         H8        H         H_        0.065645  0.348698  0.166646  0.067190  
         C22       C         C_R       0.930434  0.386510  0.302983  -0.068746           
         C23       C         C_R       0.938165  0.417722  0.338634  -0.154939           
         C24       C         C_R       0.983226  0.429164  0.351131  0.153847  
         C25       C         C_R       0.020380  0.411389  0.326573  -0.200497           
         C26       C         C_R       0.012623  0.382025  0.289627  -0.056261           
         C27       C         C_R       0.967743  0.368524  0.278611  -0.116956           
         H9        H         H_        0.908909  0.430742  0.358509  0.139157  
         H10       H         H_        0.055729  0.419920  0.336467  0.134497  
         H11       H         H_        0.895205  0.376139  0.294531  0.089554  
         H12       H         H_        0.042296  0.367709  0.271340  0.132633  
         C28       C         C_R       0.087192  0.789302  0.270709  0.825416  
         C29       C         C_R       0.018927  0.826438  0.293909  0.847934  
         C30       C         C_R       0.046881  0.762957  0.335894  0.849480  
         N4        N         N_R       0.055033  0.822867  0.264342  -0.732854           
         N5        N         N_R       0.014933  0.796160  0.329144  -0.784334           
         N6        N         N_R       0.082805  0.758893  0.306146  -0.783107           
         C31       C         C_R       0.140000  0.818885  0.210521  -0.064486           
         C32       C         C_R       0.167923  0.811360  0.172286  -0.151226           
         C33       C         C_R       0.176011  0.766522  0.156974  0.153803  
         C34       C         C_R       0.158846  0.729147  0.181763  -0.207476           
         C35       C         C_R       0.132822  0.736654  0.221373  -0.019391           
         C36       C         C_R       0.122142  0.781558  0.234846  -0.139687           
         H13       H         H_        0.180575  0.840894  0.152644  0.137410  
         H14       H         H_        0.164976  0.693936  0.169895  0.138321  
         H15       H         H_        0.131482  0.854131  0.220691  0.088720  
         H16       H         H_        0.118110  0.707159  0.239588  0.107500  
         C37       C         C_R       0.074811  0.703997  0.391649  -0.058734           
         C38       C         C_R       0.065628  0.668912  0.423062  -0.166254           
         C39       C         C_R       0.020084  0.656483  0.432483  0.166560  
         C40       C         C_R       0.983790  0.680653  0.412578  -0.200697           
         C41       C         C_R       0.992910  0.717053  0.382961  -0.056988           
         C42       C         C_R       0.038381  0.727868  0.371397  -0.120852           
         H17       H         H_        0.094262  0.649330  0.437759  0.141868  
         H18       H         H_        0.948082  0.670806  0.419533  0.133419  
         H19       H         H_        0.110492  0.712316  0.382820  0.087674  
         H20       H         H_        0.963936  0.734975  0.366891  0.128871  
         C43       C         C_R       0.977263  0.883400  0.243916  0.023115  
         C44       C         C_R       0.937306  0.908443  0.234088  -0.233794           
         C45       C         C_R       0.900319  0.907562  0.264946  0.222884  
         C46       C         C_R       0.904233  0.883454  0.306336  -0.236235           
         C47       C         C_R       0.943927  0.859137  0.316333  0.070668  
         C48       C         C_R       0.980269  0.858116  0.284873  -0.241697           
         H21       H         H_        0.934849  0.927480  0.201675  0.146444  
         H22       H         H_        0.876438  0.883002  0.331754  0.139045  
         H23       H         H_        0.005278  0.882831  0.218716  0.088016  
         H24       H         H_        0.945200  0.840293  0.348902  0.061092  
         C49       C         C_R       0.036670  0.231147  0.662377  0.829095  
         C50       C         C_R       0.010445  0.165962  0.702655  0.850210  
         C51       C         C_R       0.073950  0.208000  0.730570  0.847753  
         N7        N         N_R       0.006292  0.195690  0.666761  -0.784129           
         N8        N         N_R       0.043706  0.172743  0.734567  -0.783621           
         N9        N         N_R       0.070295  0.237543  0.694495  -0.734626           
         C52       C         C_R       0.984001  0.280426  0.616716  -0.027077           
         C53       C         C_R       0.976547  0.319938  0.590601  -0.188334           
         C54       C         C_R       0.014005  0.344588  0.573352  0.146313  
         C55       C         C_R       0.058863  0.329238  0.581455  -0.150351           
         C56       C         C_R       0.066333  0.291108  0.609455  -0.065169           
         C57       C         C_R       0.028933  0.266918  0.627389  -0.139701           
         H25       H         H_        0.941319  0.331831  0.584459  0.128166  
         H26       H         H_        0.088467  0.348762  0.568739  0.137665  
         H27       H         H_        0.954455  0.262307  0.631488  0.107818  
         H28       H         H_        0.101602  0.280905  0.617962  0.088685  
         C58       C         C_R       0.130909  0.258016  0.772252  0.024569  
         C59       C         C_R       0.156083  0.267770  0.812161  -0.236791           
         C60       C         C_R       0.155479  0.236771  0.848996  0.221311  
         C61       C         C_R       0.131523  0.195325  0.844958  -0.231622           
         C62       C         C_R       0.107067  0.185418  0.805320  0.067048  
         C63       C         C_R       0.105760  0.217006  0.769147  -0.240532           
         H29       H         H_        0.174992  0.300230  0.814710  0.147883  
         H30       H         H_        0.131287  0.169789  0.872610  0.138178  
         H31       H         H_        0.130116  0.283316  0.744367  0.087452  
         H32       H         H_        0.088349  0.152802  0.803950  0.062042  
         C64       C         C_R       0.951631  0.110055  0.674661  -0.054551           
         C65       C         C_R       0.916674  0.078476  0.683812  -0.172419           
         C66       C         C_R       0.904321  0.068906  0.729350  0.171923  
         C67       C         C_R       0.928450  0.088846  0.765661  -0.206249           
         C68       C         C_R       0.964730  0.118637  0.756568  -0.051838           
         C69       C         C_R       0.975456  0.130342  0.711112  -0.125474           
         H33       H         H_        0.897112  0.063761  0.655166  0.143357  
         H34       H         H_        0.918653  0.081787  0.801365  0.134948  
         H35       H         H_        0.959886  0.118983  0.638989  0.087676  
         H36       H         H_        0.982619  0.134721  0.785560  0.127538  
         C70       C         C_R       0.910830  0.728173  0.795458  0.891655  
         C71       C         C_R       0.953601  0.663067  0.773023  0.888494  
         C72       C         C_R       0.975980  0.705763  0.838226  0.886082  
         N10       N         N_R       0.917859  0.692480  0.766043  -0.814929           
         N11       N         N_R       0.982978  0.670060  0.808777  -0.813403           
         N12       N         N_R       0.940243  0.735128  0.831216  -0.812921           
         C73       C         C_R       0.866947  0.775744  0.739626  -0.045579           
         C74       C         C_R       0.839757  0.814145  0.730272  -0.178250           
         C75       C         C_R       0.819337  0.838376  0.766421  0.150582  
         C76       C         C_R       0.825432  0.823683  0.811822  -0.152863           
         C77       C         C_R       0.854410  0.786738  0.821275  -0.067398           
         C78       C         C_R       0.875490  0.763007  0.785238  -0.136926           
         H37       H         H_        0.835300  0.825553  0.694633  0.125396  
         H38       H         H_        0.810312  0.842902  0.840489  0.139682  
         H39       H         H_        0.884076  0.757923  0.711180  0.111720  
         H40       H         H_        0.861113  0.777078  0.857080  0.090241  
         C79       C         C_R       0.023401  0.761597  0.882247  -0.050056           
         C80       C         C_R       0.061758  0.771025  0.909517  -0.175866           
         C81       C         C_R       0.086080  0.734964  0.929913  0.147207  
         C82       C         C_R       0.071528  0.689572  0.923702  -0.147783           
         C83       C         C_R       0.034632  0.680051  0.894642  -0.074466           
         C84       C         C_R       0.010809  0.716007  0.873593  -0.128323           
         H41       H         H_        0.073064  0.806655  0.914052  0.125223  
         H42       H         H_        0.090835  0.660977  0.938791  0.138410  
         H43       H         H_        0.005506  0.789986  0.865153  0.112002  
         H44       H         H_        0.025084  0.644265  0.887858  0.091985  
         C85       C         C_R       0.927845  0.606738  0.714335  -0.066106           
         C86       C         C_R       0.937358  0.577706  0.677419  -0.153930           
         C87       C         C_R       0.982795  0.571460  0.662859  0.151030  
         C88       C         C_R       0.018905  0.591801  0.687196  -0.176714           
         C89       C         C_R       0.009481  0.619050  0.725570  -0.048725           
         C90       C         C_R       0.963848  0.627733  0.738171  -0.134548           
         H45       H         H_        0.908721  0.562659  0.658112  0.139317  
         H46       H         H_        0.054572  0.587235  0.675893  0.125176  
         H47       H         H_        0.892024  0.613539  0.723890  0.090119  
         H48       H         H_        0.037910  0.636098  0.743476  0.112704  
         Zn5       Zn        Zn3+2     0.726661  0.951522  0.795008  1.324022  
         Zn6       Zn        Zn3+2     0.794810  0.971264  0.703973  1.320641  
         Zn7       Zn        Zn3+2     0.706042  0.018635  0.703966  1.318031  
         Zn8       Zn        Zn3+2     0.773913  0.040325  0.793723  1.321034  
         O14       O         O_3       0.750479  0.995266  0.749183  -1.539198           
         O15       O         O_R       0.763047  0.895613  0.787630  -0.627665           
         O16       O         O_R       0.781552  0.970880  0.632586  -0.701726           
         O17       O         O_R       0.650511  0.981806  0.711310  -0.634148           
         O18       O         O_R       0.810462  0.908760  0.723003  -0.597338           
         O19       O         O_R       0.663356  0.936952  0.777659  -0.607370           
         O20       O         O_R       0.719502  0.018763  0.632640  -0.700353           
         O21       O         O_R       0.689716  0.080824  0.722237  -0.594249           
         O22       O         O_R       0.775885  0.027361  0.864958  -0.700338           
         O23       O         O_R       0.735107  0.094766  0.788036  -0.636920           
         O24       O         O_R       0.728245  0.965255  0.866484  -0.703267           
         O25       O         O_R       0.849768  0.009396  0.709733  -0.629770           
         O26       O         O_R       0.835455  0.057333  0.773745  -0.589398           
         C91       C         C_R       0.702910  0.107311  0.757567  0.522158  
         C92       C         C_R       0.862072  0.042820  0.738976  0.510826  
         C93       C         C_R       0.752609  0.996550  0.890794  0.655710  
         C94       C         C_R       0.795412  0.882193  0.757622  0.514329  
         C95       C         C_R       0.636822  0.950847  0.742551  0.532572  
         C96       C         C_R       0.750606  0.994929  0.607573  0.656316  
         C97       C         C_R       0.430899  0.218655  0.252368  0.782119  
         C98       C         C_R       0.496876  0.182746  0.282559  0.785790  
         C99       C         C_R       0.466887  0.248885  0.318302  0.782638  
         N13       N         N_R       0.463108  0.184878  0.250401  -0.716183           
         N14       N         N_R       0.498996  0.215084  0.316219  -0.714838           
         N15       N         N_R       0.433129  0.250887  0.286045  -0.714249           
         C100      C         C_R       0.398139  0.191846  0.178666  -0.012147           
         C101      C         C_R       0.371163  0.199085  0.140053  -0.201474           
         C102      C         C_R       0.343547  0.238331  0.136870  0.199628  
         C103      C         C_R       0.341854  0.269685  0.173239  -0.181904           
         C104      C         C_R       0.369134  0.262513  0.212038  -0.049079           
         C105      C         C_R       0.397830  0.223874  0.214410  -0.158747           
         H49       H         H_        0.372660  0.173580  0.112402  0.140157  
         H50       H         H_        0.320166  0.300408  0.171343  0.133680  
         H51       H         H_        0.420049  0.161253  0.179668  0.088720  
         H52       H         H_        0.368481  0.288121  0.239646  0.113051  
         C106      C         C_R       0.440153  0.322598  0.350968  -0.010935           
         C107      C         C_R       0.447424  0.361214  0.377887  -0.206463           
         C108      C         C_R       0.486735  0.364454  0.405456  0.210009  
         C109      C         C_R       0.518134  0.328135  0.407138  -0.192918           
         C110      C         C_R       0.510922  0.289322  0.379916  -0.045118           
         C111      C         C_R       0.472205  0.286890  0.351282  -0.160772           
         H53       H         H_        0.421876  0.388816  0.376384  0.142188  
         H54       H         H_        0.548908  0.330076  0.428786  0.136978  
         H55       H         H_        0.409496  0.321553  0.329115  0.088602  
         H56       H         H_        0.536555  0.261744  0.380563  0.112569  
         C112      C         C_R       0.537150  0.120987  0.238628  -0.041277           
         C113      C         C_R       0.575921  0.093672  0.231448  -0.194876           
         C114      C         C_R       0.612229  0.095240  0.262893  0.209493  
         C115      C         C_R       0.608995  0.122750  0.302243  -0.207086           
         C116      C         C_R       0.570423  0.149773  0.309475  -0.008185           
         C117      C         C_R       0.534758  0.149608  0.277351  -0.165332           
         H57       H         H_        0.577854  0.072072  0.200645  0.137853  
         H58       H         H_        0.636579  0.124155  0.327839  0.142607  
         H59       H         H_        0.509602  0.120451  0.212940  0.111575  
         H60       H         H_        0.569389  0.171604  0.340143  0.087297  
         C118      C         C_R       0.534132  0.676622  0.234130  0.779452  
         C119      C         C_R       0.571546  0.742657  0.205867  0.820399  
         C120      C         C_R       0.506788  0.713120  0.167112  0.813154  
         N16       N         N_R       0.567957  0.708653  0.237403  -0.699455           
         N17       N         N_R       0.540495  0.745201  0.171143  -0.779069           
         N18       N         N_R       0.503057  0.678934  0.199036  -0.720390           
         C121      C         C_R       0.561453  0.643987  0.307465  0.007113  
         C122      C         C_R       0.553569  0.620603  0.348213  -0.211201           
         C123      C         C_R       0.512155  0.597267  0.355010  0.214919  
         C124      C         C_R       0.479229  0.595924  0.319864  -0.240196           
         C125      C         C_R       0.486936  0.619955  0.278911  0.043009  
         C126      C         C_R       0.527823  0.644752  0.273084  -0.206259           
         H61       H         H_        0.580446  0.621266  0.374584  0.144002  
         H62       H         H_        0.446759  0.577409  0.324554  0.145860  
         H63       H         H_        0.594061  0.662461  0.303821  0.079394  
         H64       H         H_        0.460029  0.620461  0.252544  0.081213  
         C127      C         C_R       0.446412  0.682535  0.114215  -0.066745           
         C128      C         C_R       0.410646  0.690170  0.083094  -0.158243           
         C129      C         C_R       0.398097  0.735151  0.071566  0.155996  
         C130      C         C_R       0.422745  0.772313  0.089119  -0.202278           
         C131      C         C_R       0.459798  0.764645  0.118391  -0.054369           
         C132      C         C_R       0.470842  0.719852  0.132021  -0.116867           
         H65       H         H_        0.390718  0.660908  0.070246  0.140837  
         H66       H         H_        0.412823  0.807603  0.080512  0.133126  
         H67       H         H_        0.454877  0.647372  0.124687  0.089104  
         H68       H         H_        0.478129  0.794326  0.132565  0.131988  
         C133      C         C_R       0.632890  0.781101  0.252146  -0.068561           
         C134      C         C_R       0.660155  0.819510  0.261302  -0.179286           
         C135      C         C_R       0.658702  0.857192  0.231579  0.207618  
         C136      C         C_R       0.631416  0.855656  0.191919  -0.218219           
         C137      C         C_R       0.604557  0.817424  0.182666  0.047511  
         C138      C         C_R       0.604549  0.780368  0.213095  -0.186376           
         H69       H         H_        0.681577  0.820112  0.292291  0.135406  
         H70       H         H_        0.630144  0.884281  0.167517  0.132774  
         H71       H         H_        0.633345  0.752406  0.276515  0.120382  
         H72       H         H_        0.582915  0.817765  0.151843  0.066110  
         Zn9       Zn        Zn3+2     0.045450  0.458198  0.482397  1.322747  
         Zn10      Zn        Zn3+2     0.045426  0.546915  0.529892  1.323887  
         Zn11      Zn        Zn3+2     0.955669  0.526175  0.460821  1.323526  
         Zn12      Zn        Zn3+2     0.954390  0.478903  0.549560  1.331919  
         O27       O         O_3       0.000250  0.502655  0.505835  -1.550766           
         O28       O         O_R       0.116769  0.471637  0.482284  -0.701823           
         O29       O         O_R       0.039667  0.601828  0.491889  -0.630780           
         O30       O         O_R       0.961348  0.487387  0.406340  -0.639441           
         O31       O         O_R       0.116821  0.533633  0.530127  -0.701954           
         O32       O         O_R       0.027063  0.441987  0.420175  -0.597551           
         O33       O         O_R       0.975698  0.587648  0.443842  -0.589673           
         O34       O         O_R       0.884495  0.528230  0.473754  -0.700852           
         O35       O         O_R       0.971730  0.415622  0.564156  -0.609092           
         O36       O         O_R       0.882923  0.480354  0.535767  -0.705678           
         O37       O         O_R       0.038075  0.402722  0.519235  -0.634807           
         O38       O         O_R       0.026421  0.562496  0.592543  -0.599252           
         O39       O         O_R       0.961622  0.515241  0.605570  -0.628851           
         C139      C         C_R       0.858671  0.504827  0.504499  0.656346  
         C140      C         C_R       0.991684  0.547506  0.619031  0.515042  
         C141      C         C_R       0.006814  0.389078  0.550225  0.531858  
         C142      C         C_R       0.141871  0.502713  0.506075  0.659041  
         C143      C         C_R       0.991739  0.455184  0.393684  0.532226  
         C144      C         C_R       0.010455  0.614192  0.458443  0.512476  
         C145      C         C_R       0.581593  0.258718  0.787861  0.815253  
         C146      C         C_R       0.543046  0.323553  0.758334  0.815403  
         C147      C         C_R       0.514640  0.286236  0.824411  0.774947  
         N19       N         N_R       0.577676  0.292416  0.755761  -0.776097           
         N20       N         N_R       0.511479  0.320054  0.792370  -0.695026           
         N21       N         N_R       0.549649  0.255088  0.822082  -0.719556           
         C148      C         C_R       0.630103  0.211493  0.736300  -0.047757           
         C149      C         C_R       0.659333  0.174418  0.728676  -0.209461           
         C150      C         C_R       0.676962  0.149920  0.765921  0.167299  
         C151      C         C_R       0.665518  0.162611  0.810933  -0.163541           
         C152      C         C_R       0.634433  0.198392  0.818531  -0.061931           
         C153      C         C_R       0.616587  0.222702  0.781137  -0.125302           
         H73       H         H_        0.667882  0.164390  0.693361  0.135767  
         H74       H         H_        0.678432  0.142805  0.840263  0.141378  
         H75       H         H_        0.615886  0.229736  0.706569  0.130009  
         H76       H         H_        0.624045  0.206989  0.853729  0.088515  
         C154      C         C_R       0.469802  0.239162  0.881115  0.035361  
         C155      C         C_R       0.428843  0.231494  0.905165  -0.235802           
         C156      C         C_R       0.393718  0.264417  0.903843  0.202104  
         C157      C         C_R       0.400532  0.305789  0.880488  -0.185973           
         C158      C         C_R       0.441289  0.313626  0.857061  -0.006619           
         C159      C         C_R       0.475655  0.279999  0.856297  -0.197548           
         H77       H         H_        0.424146  0.199058  0.923693  0.146793  
         H78       H         H_        0.374167  0.332654  0.879837  0.132824  
         H79       H         H_        0.496153  0.212259  0.880612  0.082991  
         H80       H         H_        0.444958  0.346188  0.838554  0.081001  
         C160      C         C_R       0.566450  0.356586  0.683571  0.050675  
         C161      C         C_R       0.557320  0.383496  0.645329  -0.220671           
         C162      C         C_R       0.517713  0.410840  0.643778  0.206113  
         C163      C         C_R       0.487927  0.412307  0.681463  -0.182273           
         C164      C         C_R       0.496962  0.384997  0.719884  -0.064469           
         C165      C         C_R       0.535951  0.356591  0.720622  -0.187165           
         H81       H         H_        0.581767  0.382210  0.616702  0.133761  
         H82       H         H_        0.456976  0.433772  0.680849  0.135735  
         H83       H         H_        0.597231  0.334896  0.683241  0.065348  
         H84       H         H_        0.472542  0.385465  0.748576  0.117445  
         C166      C         C_R       0.413624  0.798358  0.738518  0.849360  
         C167      C         C_R       0.478897  0.838611  0.712362  0.830075  
         C168      C         C_R       0.455696  0.770557  0.674951  0.845350  
         N22       N         N_R       0.443394  0.834198  0.742734  -0.783979           
         N23       N         N_R       0.485294  0.806574  0.678671  -0.734255           
         N24       N         N_R       0.420401  0.766532  0.705195  -0.782731           
         C169      C         C_R       0.357675  0.826243  0.797381  -0.060525           
         C170      C         C_R       0.326077  0.817065  0.832337  -0.163104           
         C171      C         C_R       0.316501  0.771562  0.844634  0.155506  
         C172      C         C_R       0.336447  0.735309  0.820445  -0.183102           
         C173      C         C_R       0.366262  0.744435  0.784161  -0.061754           
         C174      C         C_R       0.377975  0.789858  0.773500  -0.120500           
         H85       H         H_        0.311360  0.845668  0.851944  0.141291  
         H86       H         H_        0.329383  0.699633  0.830197  0.122858  
         H87       H         H_        0.366611  0.861886  0.789171  0.088790  
         H88       H         H_        0.382363  0.715497  0.766220  0.128484  
         C175      C         C_R       0.433089  0.695883  0.641822  0.067175  
         C176      C         C_R       0.443021  0.656276  0.617370  -0.237271           
         C177      C         C_R       0.484495  0.652270  0.593381  0.225554  
         C178      C         C_R       0.515495  0.689093  0.592726  -0.236918           
         C179      C         C_R       0.505728  0.728962  0.617907  0.023443  
         C180      C         C_R       0.464694  0.732040  0.643099  -0.237479           
         H89       H         H_        0.417491  0.628621  0.617626  0.139879  
         H90       H         H_        0.547979  0.686560  0.573786  0.148398  
         H91       H         H_        0.400449  0.697232  0.660570  0.062040  
         H92       H         H_        0.531038  0.756834  0.618677  0.087561  
         C181      C         C_R       0.528116  0.884239  0.765138  -0.024906           
         C182      C         C_R       0.567610  0.910393  0.772677  -0.188976           
         C183      C         C_R       0.592333  0.927676  0.735272  0.145758  
         C184      C         C_R       0.577080  0.919548  0.690380  -0.151025           
         C185      C         C_R       0.538970  0.891513  0.682825  -0.064857           
         C186      C         C_R       0.514701  0.873560  0.720174  -0.141747           
         H93       H         H_        0.579430  0.916546  0.807931  0.127676  
         H94       H         H_        0.596665  0.932285  0.660815  0.138255  
         H95       H         H_        0.509934  0.869463  0.794648  0.107133  
         H96       H         H_        0.528840  0.883011  0.647532  0.089356  
         Zn13      Zn        Zn3+2     0.242132  0.297070  0.044549  1.293724  
         Zn14      Zn        Zn3+2     0.196056  0.208274  0.988388  1.305359  
         Zn15      Zn        Zn3+2     0.254454  0.296936  0.943928  1.311972  
         Zn16      Zn        Zn3+2     0.296490  0.206485  0.000655  1.292082  
         O40       O         O_3       0.247089  0.252212  0.994259  -1.506017           
         O41       O         O_R       0.182412  0.288494  0.071119  -0.571601           
         O42       O         O_R       0.171440  0.217327  0.927406  -0.588827           
         O43       O         O_R       0.249966  0.368799  0.955152  -0.697588           
         O44       O         O_R       0.147920  0.226580  0.032128  -0.597225           
         O45       O         O_R       0.245097  0.368420  0.033439  -0.688527           
         O46       O         O_R       0.211745  0.279517  0.894553  -0.595109           
         O47       O         O_R       0.316009  0.287650  0.919994  -0.603555           
         O48       O         O_R       0.322581  0.215324  0.060740  -0.575330           
         O49       O         O_R       0.345579  0.222343  0.957704  -0.589358           
         O50       O         O_R       0.286324  0.280305  0.092327  -0.592070           
         O51       O         O_R       0.206063  0.136282  0.992834  -0.693175           
         O52       O         O_R       0.284385  0.135265  0.997620  -0.688405           
         C187      C         C_R       0.349573  0.257101  0.927752  0.470571  
         C188      C         C_R       0.244933  0.110779  0.995499  0.622579  
         C189      C         C_R       0.316401  0.245487  0.094765  0.449559  
         C190      C         C_R       0.147018  0.260304  0.063628  0.446102  
         C191      C         C_R       0.247202  0.393640  0.994464  0.631845  
         C192      C         C_R       0.180236  0.245855  0.892401  0.461465  
         Zn17      Zn        Zn3+2     0.760701  0.947928  0.293048  1.308085  
         Zn18      Zn        Zn3+2     0.805473  0.006473  0.204704  1.306219  
         Zn19      Zn        Zn3+2     0.704883  0.994160  0.204037  1.296000  
         Zn20      Zn        Zn3+2     0.748374  0.048364  0.294890  1.293496  
         O53       O         O_3       0.754974  0.999028  0.249165  -1.502871           
         O54       O         O_R       0.821752  0.923342  0.284109  -0.590502           
         O55       O         O_R       0.794628  0.002070  0.132943  -0.691222           
         O56       O         O_R       0.678334  0.934443  0.212379  -0.572720           
         O57       O         O_R       0.854819  0.963875  0.222251  -0.594648           
         O58       O         O_R       0.717034  0.899933  0.274505  -0.599127           
         O59       O         O_R       0.716262  0.997309  0.132577  -0.691263           
         O60       O         O_R       0.656910  0.038215  0.220749  -0.594488           
         O61       O         O_R       0.751321  0.036133  0.366116  -0.689945           
         O62       O         O_R       0.688275  0.074326  0.286029  -0.578019           
         O63       O         O_R       0.756145  0.957935  0.365047  -0.695530           
         O64       O         O_R       0.829319  0.067992  0.214102  -0.597625           
         O65       O         O_R       0.791212  0.097503  0.279242  -0.587231           
         C193      C         C_R       0.654363  0.068142  0.255724  0.448969  
         C194      C         C_R       0.821341  0.101533  0.244608  0.460947  
         C195      C         C_R       0.753442  0.996732  0.390609  0.627011  
         C196      C         C_R       0.856903  0.932238  0.255774  0.461913  
         C197      C         C_R       0.685704  0.899056  0.240598  0.449024  
         C198      C         C_R       0.755528  0.999373  0.107771  0.625035  
         Zn21      Zn        Zn3+2     0.266758  0.797491  0.042916  1.320456  
         Zn22      Zn        Zn3+2     0.199265  0.706705  0.022561  1.329725  
         Zn23      Zn        Zn3+2     0.219115  0.797332  0.954266  1.319281  
         Zn24      Zn        Zn3+2     0.287936  0.707286  0.975092  1.319658  
         O66       O         O_3       0.243136  0.752206  0.998606  -1.545542           
         O67       O         O_R       0.230098  0.790298  0.098614  -0.633463           
         O68       O         O_R       0.143304  0.713916  0.986267  -0.632247           
         O69       O         O_R       0.218976  0.868771  0.967436  -0.700791           
         O70       O         O_R       0.184833  0.724241  0.085854  -0.603942           
         O71       O         O_R       0.266873  0.868747  0.029409  -0.703246           
         O72       O         O_R       0.156451  0.778438  0.938714  -0.598976           
         O73       O         O_R       0.257151  0.791352  0.899330  -0.629695           
         O74       O         O_R       0.342561  0.713075  0.013701  -0.637542           
         O75       O         O_R       0.304822  0.727106  0.913413  -0.589789           
         O76       O         O_R       0.329053  0.779006  0.058899  -0.593389           
         O77       O         O_R       0.212868  0.635296  0.021407  -0.703045           
         O78       O         O_R       0.274836  0.635979  0.973398  -0.702409           
         C199      C         C_R       0.290401  0.761949  0.886891  0.517139  
         C200      C         C_R       0.243917  0.610593  0.997062  0.654707  
         C201      C         C_R       0.355414  0.743589  0.045718  0.528976  
         C202      C         C_R       0.198990  0.759235  0.112368  0.526846  
         C203      C         C_R       0.243057  0.893837  0.998326  0.660008  
         C204      C         C_R       0.129902  0.743853  0.953861  0.519512  
         C205      C         C_R       0.226390  0.522692  0.539295  0.088388  
         C206      C         C_R       0.197317  0.503066  0.505233  0.027503  
         C207      C         C_R       0.225036  0.483376  0.469273  -0.228885           
         H97       H         H_        0.207401  0.467001  0.440279  0.175445  
         C208      C         C_R       0.275599  0.484780  0.468442  -0.241308           
         H98       H         H_        0.293166  0.469247  0.438935  0.180732  
         C209      C         C_R       0.303419  0.504405  0.504357  0.047628  
         C210      C         C_R       0.274452  0.522527  0.539325  0.075082  
         C211      C         C_3       0.277806  0.547555  0.584414  -0.151460           
         C212      C         C_3       0.223147  0.547548  0.584493  -0.179816           
         H99       H         H_        0.293016  0.525517  0.612285  0.088968  
         H100      H         H_        0.292923  0.582879  0.580375  0.083104  
         H101      H         H_        0.208057  0.525376  0.612327  0.087471  
         H102      H         H_        0.207975  0.582872  0.580656  0.094052  
         C213      C         C_R       0.725442  0.472636  0.520911  0.065777  
         C214      C         C_R       0.697152  0.507742  0.502072  0.051756  
         C215      C         C_R       0.725670  0.543557  0.483351  -0.244297           
         H103      H         H_        0.708695  0.573125  0.467349  0.181284  
         C216      C         C_R       0.776269  0.542429  0.483374  -0.229537           
         H104      H         H_        0.794528  0.571293  0.467500  0.175590  
         C217      C         C_R       0.803242  0.506273  0.503718  0.028135  
         C218      C         C_R       0.773460  0.472376  0.522438  0.096551  
         C219      C         C_3       0.775739  0.426996  0.546982  -0.181412           
         C220      C         C_3       0.721108  0.427399  0.545446  -0.150262           
         H105      H         H_        0.791293  0.399298  0.524958  0.088015  
         H106      H         H_        0.789922  0.430433  0.582789  0.093994  
         H107      H         H_        0.706381  0.399838  0.522705  0.092134  
         H108      H         H_        0.705000  0.431215  0.580399  0.081396  
         C221      C         C_R       0.209785  0.978341  0.978368  0.089035  
         C222      C         C_R       0.243882  0.949274  0.997949  0.025522  
         C223      C         C_R       0.279846  0.977006  0.017590  -0.226245           
         H109      H         H_        0.308874  0.959406  0.033937  0.174550  
         C224      C         C_R       0.280645  0.027537  0.016186  -0.245165           
         H110      H         H_        0.310163  0.045084  0.031689  0.180651  
         C225      C         C_R       0.244695  0.055352  0.996608  0.052912  
         C226      C         C_R       0.209728  0.026372  0.978533  0.070433  
         C227      C         C_3       0.164594  0.029703  0.953577  -0.150854           
         C228      C         C_3       0.164546  0.975099  0.953585  -0.173168           
         H111      H         H_        0.136753  0.044892  0.975700  0.089628  
         H112      H         H_        0.168559  0.044801  0.918206  0.082142  
         H113      H         H_        0.136760  0.960021  0.975841  0.085576  
         H114      H         H_        0.168327  0.959940  0.918215  0.091549  
         C229      C         C_R       0.263869  0.478811  0.960945  0.080199  
         C230      C         C_R       0.245916  0.449066  0.995323  0.037595  
         C231      C         C_R       0.226298  0.476090  0.031879  -0.237931           
         H115      H         H_        0.210880  0.457894  0.061051  0.179829  
         C232      C         C_R       0.224761  0.526628  0.032160  -0.232716           
         H116      H         H_        0.208416  0.543580  0.061585  0.177048  
         C233      C         C_R       0.244297  0.555146  0.996758  0.035723  
         C234      C         C_R       0.263903  0.526831  0.962025  0.080463  
         C235      C         C_3       0.288654  0.531089  0.916840  -0.169831           
         C236      C         C_3       0.288807  0.476497  0.915725  -0.146035           
         H117      H         H_        0.266344  0.546701  0.889402  0.083310  
         H118      H         H_        0.323984  0.546247  0.920911  0.091180  
         H119      H         H_        0.266710  0.461848  0.887587  0.086870  
         H120      H         H_        0.324220  0.461405  0.919335  0.079422  
         C237      C         C_R       0.720464  0.979998  0.024036  0.067530  
         C238      C         C_R       0.755596  0.998837  0.052323  0.049147  
         C239      C         C_R       0.791412  0.017610  0.023799  -0.241723           
         H121      H         H_        0.820997  0.033621  0.040772  0.181526  
         C240      C         C_R       0.790257  0.017635  0.973199  -0.232194           
         H122      H         H_        0.819122  0.033549  0.954936  0.176043  
         C241      C         C_R       0.754079  0.997284  0.946226  0.027768  
         C242      C         C_R       0.720186  0.978510  0.976013  0.095146  
         C243      C         C_3       0.674789  0.953933  0.973738  -0.177526           
         C244      C         C_3       0.675213  0.955424  0.028373  -0.146042           
         H123      H         H_        0.647029  0.975908  0.958233  0.086151  
         H124      H         H_        0.678270  0.918181  0.959508  0.092292  
         H125      H         H_        0.647600  0.978092  0.043149  0.090441  
         H126      H         H_        0.679084  0.920501  0.044436  0.079466  
         C245      C         C_R       0.770562  0.961636  0.523074  0.091221  
         C246      C         C_R       0.750961  0.995716  0.552132  0.026381  
         C247      C         C_R       0.731297  0.031636  0.524405  -0.226114           
         H127      H         H_        0.714945  0.060636  0.542033  0.174483  
         C248      C         C_R       0.732704  0.032414  0.473844  -0.244866           
         H128      H         H_        0.717196  0.061892  0.456264  0.181071  
         C249      C         C_R       0.752303  0.996487  0.446039  0.048124  
         C250      C         C_R       0.770398  0.961559  0.475013  0.073166  
         C251      C         C_3       0.795391  0.916484  0.471672  -0.150212           
         C252      C         C_3       0.795383  0.916458  0.526333  -0.177828           
         H129      H         H_        0.773292  0.888656  0.456483  0.089060  
         H130      H         H_        0.830758  0.920460  0.456541  0.082170  
         H131      H         H_        0.773150  0.888697  0.541447  0.086871  
         H132      H         H_        0.830748  0.920261  0.541492  0.093112 
loop_
  _geom_bond_atom_site_label_1
  _geom_bond_atom_site_label_2
  _geom_bond_distance
  _geom_bond_site_symmetry_2
  _ccdc_geom_bond_type
         Zn1       O1        1.940     .         S         
         Zn1       O2        2.077     .         S         
         Zn1       O6        1.929     .         S         
         Zn1       O11       1.891     .         S         
         Zn2       O1        1.941     .         S         
         Zn2       O3        1.911     .         S         
         Zn2       O5        2.086     .         S         
         Zn2       O12       1.938     .         S         
         Zn3       O1        1.940     .         S         
         Zn3       O4        1.895     .         S         
         Zn3       O7        1.925     .         S         
         Zn3       O8        2.074     .         S         
         Zn4       O1        1.939     .         S         
         Zn4       O9        1.939     .         S         
         Zn4       O10       2.089     .         S         
         Zn4       O13       1.905     .         S         
         C1        C209      1.590     .         S         
         C2        C177      1.456     .         S         
         C3        C162      1.453     .         S         
         C4        C214      1.590     .         S         
         C5        C108      1.452     .         S         
         C6        C123      1.455     .         S         
         C7        C15       1.455     .         S         
         C8        C27       1.454     .         S         
         C9        C21       1.453     1_655     S         
         C10       H3        1.081     .         S         
         C11       H1        1.081     .         S         
         C12       C194      1.455     .         S         
         C13       H2        1.080     .         S         
         C14       H4        1.080     .         S         
         C16       H7        1.080     .         S         
         C17       H5        1.081     .         S         
         C18       C190      1.453     .         S         
         C19       H6        1.080     .         S         
         C20       H8        1.080     .         S         
         C21       C9        1.453     1_455     S         
         C22       H11       1.081     .         S         
         C23       H9        1.081     .         S         
         C24       C143      1.451     .         S         
         C25       H10       1.081     .         S         
         C26       H12       1.081     .         S         
         C28       C36       1.453     .         S         
         C29       C48       1.457     1_455     S         
         C30       C42       1.453     .         S         
         C31       H15       1.081     .         S         
         C32       H13       1.081     .         S         
         C33       C202      1.454     .         S         
         C34       H14       1.081     .         S         
         C35       H16       1.081     .         S         
         C37       H19       1.081     .         S         
         C38       H17       1.081     .         S         
         C39       C144      1.451     .         S         
         C40       H18       1.081     .         S         
         C41       H20       1.081     .         S         
         C43       H23       1.081     1_655     S         
         C44       H21       1.081     .         S         
         C45       C196      1.456     .         S         
         C46       H22       1.080     .         S         
         C47       H24       1.080     .         S         
         C48       C29       1.457     1_655     S         
         H23       C43       1.081     1_455     S         
         C49       C57       1.453     .         S         
         C50       C69       1.453     1_455     S         
         C51       C63       1.457     .         S         
         C52       H27       1.081     .         S         
         C53       H25       1.081     .         S         
         C54       C141      1.454     .         S         
         C55       H26       1.081     .         S         
         C56       H28       1.081     .         S         
         C58       H31       1.081     .         S         
         C59       H29       1.081     .         S         
         C60       C192      1.457     .         S         
         C61       H30       1.080     .         S         
         C62       H32       1.080     .         S         
         C64       H35       1.081     .         S         
         C65       H33       1.081     .         S         
         C66       C92       1.451     .         S         
         C67       H34       1.081     .         S         
         C68       H36       1.081     .         S         
         C69       C50       1.453     1_655     S         
         C70       C78       1.454     .         S         
         C71       C90       1.454     .         S         
         C72       C84       1.454     1_655     S         
         C73       H39       1.081     .         S         
         C74       H37       1.081     .         S         
         C75       C94       1.455     .         S         
         C76       H38       1.081     .         S         
         C77       H40       1.081     .         S         
         C79       H43       1.081     .         S         
         C80       H41       1.081     .         S         
         C81       C204      1.455     .         S         
         C82       H42       1.081     .         S         
         C83       H44       1.081     .         S         
         C84       C72       1.454     1_455     S         
         C85       H47       1.081     .         S         
         C86       H45       1.081     .         S         
         C87       C140      1.455     .         S         
         C88       H46       1.081     .         S         
         C89       H48       1.081     .         S         
         Zn5       O14       1.942     .         S         
         Zn5       O15       1.926     .         S         
         Zn5       O19       1.928     .         S         
         Zn5       O24       2.088     .         S         
         Zn6       O14       1.942     .         S         
         Zn6       O16       2.082     .         S         
         Zn6       O18       1.929     .         S         
         Zn6       O25       1.926     1_565     S         
         Zn7       O14       1.938     1_545     S         
         Zn7       O17       1.923     1_545     S         
         Zn7       O20       2.081     .         S         
         Zn7       O21       1.918     .         S         
         Zn8       O14       1.938     1_545     S         
         Zn8       O22       2.077     .         S         
         Zn8       O23       1.925     .         S         
         Zn8       O26       1.919     .         S         
         O14       Zn7       1.938     1_565     S         
         O14       Zn8       1.938     1_565     S         
         O17       Zn7       1.923     1_565     S         
         O25       Zn6       1.926     1_545     S         
         C91       C150      1.452     .         S         
         C93       C241      1.590     .         S         
         C95       C183      1.454     .         S         
         C96       C246      1.590     .         S         
         C97       C105      1.452     .         S         
         C98       C117      1.452     .         S         
         C99       C111      1.452     .         S         
         C100      H51       1.080     .         S         
         C101      H49       1.080     .         S         
         C102      C189      1.451     .         S         
         C103      H50       1.081     .         S         
         C104      H52       1.080     .         S         
         C106      H55       1.080     .         S         
         C107      H53       1.080     .         S         
         C109      H54       1.081     .         S         
         C110      H56       1.080     .         S         
         C112      H59       1.080     .         S         
         C113      H57       1.081     .         S         
         C114      C193      1.452     .         S         
         C115      H58       1.080     .         S         
         C116      H60       1.080     .         S         
         C118      C126      1.455     .         S         
         C119      C138      1.453     .         S         
         C120      C132      1.454     .         S         
         C121      H63       1.080     .         S         
         C122      H61       1.080     .         S         
         C124      H62       1.081     .         S         
         C125      H64       1.081     .         S         
         C127      H67       1.081     .         S         
         C128      H65       1.081     .         S         
         C129      C201      1.452     .         S         
         C130      H66       1.081     .         S         
         C131      H68       1.081     .         S         
         C133      H71       1.080     .         S         
         C134      H69       1.081     .         S         
         C135      C197      1.453     .         S         
         C136      H70       1.080     .         S         
         C137      H72       1.080     .         S         
         Zn9       O27       1.939     .         S         
         Zn9       O28       2.081     .         S         
         Zn9       O32       1.918     .         S         
         Zn9       O37       1.923     .         S         
         Zn10      O27       1.942     .         S         
         Zn10      O29       1.924     .         S         
         Zn10      O31       2.083     .         S         
         Zn10      O38       1.930     .         S         
         Zn11      O27       1.939     1_655     S         
         Zn11      O30       1.925     .         S         
         Zn11      O33       1.919     .         S         
         Zn11      O34       2.075     .         S         
         Zn12      O27       1.941     1_655     S         
         Zn12      O35       1.930     .         S         
         Zn12      O36       2.088     .         S         
         Zn12      O39       1.926     .         S         
         O27       Zn11      1.939     1_455     S         
         O27       Zn12      1.941     1_455     S         
         C139      C217      1.590     .         S         
         C142      C206      1.590     .         S         
         C145      C153      1.454     .         S         
         C146      C165      1.453     .         S         
         C147      C159      1.455     .         S         
         C148      H75       1.081     .         S         
         C149      H73       1.081     .         S         
         C151      H74       1.081     .         S         
         C152      H76       1.081     .         S         
         C154      H79       1.081     .         S         
         C155      H77       1.081     .         S         
         C156      C187      1.455     .         S         
         C157      H78       1.080     .         S         
         C158      H80       1.080     .         S         
         C160      H83       1.080     .         S         
         C161      H81       1.080     .         S         
         C163      H82       1.081     .         S         
         C164      H84       1.080     .         S         
         C166      C174      1.453     .         S         
         C167      C186      1.453     .         S         
         C168      C180      1.457     .         S         
         C169      H87       1.081     .         S         
         C170      H85       1.081     .         S         
         C171      C199      1.451     .         S         
         C172      H86       1.081     .         S         
         C173      H88       1.081     .         S         
         C175      H91       1.080     .         S         
         C176      H89       1.080     .         S         
         C178      H90       1.081     .         S         
         C179      H92       1.081     .         S         
         C181      H95       1.081     .         S         
         C182      H93       1.081     .         S         
         C184      H94       1.081     .         S         
         C185      H96       1.081     .         S         
         Zn13      O40       1.938     1_554     S         
         Zn13      O41       1.891     .         S         
         Zn13      O45       2.075     .         S         
         Zn13      O50       1.928     .         S         
         Zn14      O40       1.940     .         S         
         Zn14      O42       1.904     .         S         
         Zn14      O44       1.938     1_556     S         
         Zn14      O51       2.090     .         S         
         Zn15      O40       1.943     .         S         
         Zn15      O43       2.092     .         S         
         Zn15      O46       1.938     .         S         
         Zn15      O47       1.913     .         S         
         Zn16      O40       1.940     1_554     S         
         Zn16      O48       1.896     .         S         
         Zn16      O49       1.925     1_554     S         
         Zn16      O52       2.076     1_554     S         
         O40       Zn13      1.938     1_556     S         
         O40       Zn16      1.940     1_556     S         
         O44       Zn14      1.938     1_554     S         
         O49       Zn16      1.925     1_556     S         
         O52       Zn16      2.076     1_556     S         
         C188      C225      1.592     .         S         
         C191      C230      1.592     .         S         
         Zn17      O53       1.940     .         S         
         Zn17      O54       1.905     .         S         
         Zn17      O58       1.936     .         S         
         Zn17      O63       2.089     .         S         
         Zn18      O53       1.941     1_545     S         
         Zn18      O55       2.085     .         S         
         Zn18      O57       1.937     1_545     S         
         Zn18      O64       1.913     .         S         
         Zn19      O53       1.939     .         S         
         Zn19      O56       1.891     .         S         
         Zn19      O59       2.077     .         S         
         Zn19      O60       1.929     1_565     S         
         Zn20      O53       1.939     1_545     S         
         Zn20      O61       2.074     .         S         
         Zn20      O62       1.895     .         S         
         Zn20      O65       1.924     .         S         
         O53       Zn18      1.941     1_565     S         
         O53       Zn20      1.939     1_565     S         
         O57       Zn18      1.937     1_565     S         
         O60       Zn19      1.929     1_545     S         
         C195      C249      1.590     .         S         
         C198      C238      1.590     .         S         
         Zn21      O66       1.940     1_554     S         
         Zn21      O67       1.923     .         S         
         Zn21      O71       2.082     .         S         
         Zn21      O76       1.919     .         S         
         Zn22      O66       1.939     1_554     S         
         Zn22      O68       1.924     1_554     S         
         Zn22      O70       1.928     .         S         
         Zn22      O77       2.087     .         S         
         Zn23      O66       1.942     .         S         
         Zn23      O69       2.085     .         S         
         Zn23      O72       1.930     .         S         
         Zn23      O73       1.924     .         S         
         Zn24      O66       1.941     .         S         
         Zn24      O74       1.926     1_556     S         
         Zn24      O75       1.920     .         S         
         Zn24      O78       2.082     .         S         
         O66       Zn21      1.940     1_556     S         
         O66       Zn22      1.939     1_556     S         
         O68       Zn22      1.924     1_556     S         
         O74       Zn24      1.926     1_554     S         
         C200      C233      1.592     .         S         
         C203      C222      1.592     .         S         
         C205      C212      1.482     .         S         
         C207      H97       1.081     .         S         
         C208      H98       1.081     .         S         
         C210      C211      1.482     .         S         
         C211      C212      1.568     .         S         
         C211      H99       1.109     .         S         
         C211      H100      1.109     .         S         
         C212      H101      1.109     .         S         
         C212      H102      1.109     .         S         
         C213      C220      1.482     .         S         
         C215      H103      1.081     .         S         
         C216      H104      1.081     .         S         
         C218      C219      1.482     .         S         
         C219      C220      1.567     .         S         
         C219      H105      1.109     .         S         
         C219      H106      1.109     .         S         
         C220      H107      1.109     .         S         
         C220      H108      1.109     .         S         
         C221      C228      1.482     .         S         
         C223      H109      1.081     .         S         
         C224      H110      1.081     .         S         
         C226      C227      1.482     .         S         
         C227      C228      1.568     1_545     S         
         C227      H111      1.109     .         S         
         C227      H112      1.109     .         S         
         C228      C227      1.568     1_565     S         
         C228      H113      1.109     .         S         
         C228      H114      1.109     .         S         
         C229      C236      1.482     .         S         
         C231      H115      1.081     .         S         
         C232      H116      1.081     .         S         
         C234      C235      1.482     .         S         
         C235      C236      1.568     .         S         
         C235      H117      1.109     .         S         
         C235      H118      1.109     .         S         
         C236      H119      1.109     .         S         
         C236      H120      1.109     .         S         
         C237      C244      1.482     .         S         
         C239      H121      1.081     .         S         
         C240      H122      1.081     .         S         
         C242      C243      1.482     .         S         
         C243      C244      1.567     1_556     S         
         C243      H123      1.109     .         S         
         C243      H124      1.109     .         S         
         C244      C243      1.567     1_554     S         
         C244      H125      1.109     .         S         
         C244      H126      1.109     .         S         
         C245      C252      1.482     .         S         
         C247      H127      1.081     .         S         
         C248      H128      1.081     .         S         
         C250      C251      1.482     .         S         
         C251      C252      1.568     .         S         
         C251      H129      1.109     .         S         
         C251      H130      1.109     .         S         
         C252      H131      1.109     .         S         
         C252      H132      1.109     .         S         
         O2        C4        1.333     .         A         
         O3        C6        1.321     .         A         
         O4        C5        1.316     .         A         
         O5        C4        1.336     .         A         
         O6        C5        1.322     .         A         
         O7        C6        1.322     .         A         
         O8        C1        1.333     .         A         
         O9        C3        1.324     .         A         
         O10       C1        1.336     .         A         
         O11       C3        1.316     .         A         
         O12       C2        1.324     .         A         
         O13       C2        1.320     .         A         
         C7        N1        1.346     .         A         
         C7        N3        1.340     .         A         
         C8        N1        1.347     .         A         
         C8        N2        1.340     .         A         
         C9        N2        1.338     .         A         
         C9        N3        1.335     .         A         
         C10       C11       1.380     .         A         
         C10       C15       1.382     .         A         
         C11       C12       1.382     .         A         
         C12       C13       1.377     .         A         
         C13       C14       1.366     .         A         
         C14       C15       1.380     .         A         
         C16       C17       1.377     .         A         
         C16       C21       1.384     .         A         
         C17       C18       1.378     .         A         
         C18       C19       1.381     .         A         
         C19       C20       1.367     .         A         
         C20       C21       1.376     .         A         
         C22       C23       1.377     .         A         
         C22       C27       1.378     .         A         
         C23       C24       1.381     .         A         
         C24       C25       1.375     1_655     A         
         C25       C24       1.375     1_455     A         
         C25       C26       1.372     .         A         
         C26       C27       1.381     1_455     A         
         C27       C26       1.381     1_655     A         
         C28       N4        1.346     .         A         
         C28       N6        1.346     .         A         
         C29       N4        1.342     .         A         
         C29       N5        1.338     .         A         
         C30       N5        1.336     .         A         
         C30       N6        1.342     .         A         
         C31       C32       1.375     .         A         
         C31       C36       1.377     .         A         
         C32       C33       1.380     .         A         
         C33       C34       1.378     .         A         
         C34       C35       1.376     .         A         
         C35       C36       1.380     .         A         
         C37       C38       1.377     .         A         
         C37       C42       1.378     .         A         
         C38       C39       1.381     .         A         
         C39       C40       1.375     1_455     A         
         C40       C39       1.375     1_655     A         
         C40       C41       1.372     .         A         
         C41       C42       1.381     1_655     A         
         C42       C41       1.381     1_455     A         
         C43       C44       1.382     .         A         
         C43       C48       1.384     .         A         
         C44       C45       1.381     .         A         
         C45       C46       1.379     .         A         
         C46       C47       1.366     .         A         
         C47       C48       1.379     .         A         
         C49       N7        1.346     .         A         
         C49       N9        1.346     .         A         
         C50       N7        1.343     .         A         
         C50       N8        1.336     .         A         
         C51       N8        1.338     .         A         
         C51       N9        1.342     .         A         
         C52       C53       1.376     .         A         
         C52       C57       1.380     1_655     A         
         C53       C54       1.378     1_655     A         
         C54       C53       1.378     1_455     A         
         C54       C55       1.380     .         A         
         C55       C56       1.375     .         A         
         C56       C57       1.377     .         A         
         C57       C52       1.380     1_455     A         
         C58       C59       1.382     .         A         
         C58       C63       1.384     .         A         
         C59       C60       1.381     .         A         
         C60       C61       1.379     .         A         
         C61       C62       1.366     .         A         
         C62       C63       1.378     .         A         
         C64       C65       1.377     .         A         
         C64       C69       1.378     .         A         
         C65       C66       1.381     .         A         
         C66       C67       1.375     .         A         
         C67       C68       1.372     .         A         
         C68       C69       1.381     .         A         
         C70       N10       1.342     .         A         
         C70       N12       1.343     .         A         
         C71       N10       1.343     .         A         
         C71       N11       1.342     .         A         
         C72       N11       1.343     .         A         
         C72       N12       1.342     .         A         
         C73       C74       1.377     .         A         
         C73       C78       1.380     .         A         
         C74       C75       1.379     .         A         
         C75       C76       1.380     .         A         
         C76       C77       1.374     .         A         
         C77       C78       1.377     .         A         
         C79       C80       1.377     .         A         
         C79       C84       1.380     .         A         
         C80       C81       1.379     .         A         
         C81       C82       1.380     .         A         
         C82       C83       1.374     .         A         
         C83       C84       1.377     .         A         
         C85       C86       1.374     .         A         
         C85       C90       1.377     .         A         
         C86       C87       1.380     .         A         
         C87       C88       1.379     1_655     A         
         C88       C87       1.379     1_455     A         
         C88       C89       1.377     .         A         
         C89       C90       1.380     1_455     A         
         C90       C89       1.380     1_655     A         
         O15       C94       1.323     .         A         
         O16       C96       1.334     .         A         
         O17       C95       1.322     .         A         
         O18       C94       1.324     .         A         
         O19       C95       1.324     .         A         
         O20       C96       1.334     1_545     A         
         O21       C91       1.322     .         A         
         O22       C93       1.333     1_545     A         
         O23       C91       1.321     .         A         
         O24       C93       1.335     .         A         
         O25       C92       1.322     .         A         
         O26       C92       1.323     .         A         
         C93       O22       1.333     1_565     A         
         C96       O20       1.334     1_565     A         
         C97       N13       1.340     .         A         
         C97       N15       1.339     .         A         
         C98       N13       1.339     .         A         
         C98       N14       1.341     .         A         
         C99       N14       1.339     .         A         
         C99       N15       1.340     .         A         
         C100      C101      1.367     .         A         
         C100      C105      1.377     .         A         
         C101      C102      1.380     .         A         
         C102      C103      1.378     .         A         
         C103      C104      1.376     .         A         
         C104      C105      1.383     .         A         
         C106      C107      1.367     .         A         
         C106      C111      1.377     .         A         
         C107      C108      1.380     .         A         
         C108      C109      1.378     .         A         
         C109      C110      1.376     .         A         
         C110      C111      1.383     .         A         
         C112      C113      1.376     .         A         
         C112      C117      1.383     .         A         
         C113      C114      1.378     .         A         
         C114      C115      1.380     .         A         
         C115      C116      1.367     .         A         
         C116      C117      1.377     .         A         
         C118      N16       1.340     .         A         
         C118      N18       1.346     .         A         
         C119      N16       1.335     .         A         
         C119      N17       1.338     .         A         
         C120      N17       1.340     .         A         
         C120      N18       1.347     .         A         
         C121      C122      1.367     .         A         
         C121      C126      1.380     .         A         
         C122      C123      1.378     .         A         
         C123      C124      1.382     .         A         
         C124      C125      1.380     .         A         
         C125      C126      1.382     .         A         
         C127      C128      1.377     .         A         
         C127      C132      1.378     .         A         
         C128      C129      1.381     .         A         
         C129      C130      1.375     .         A         
         C130      C131      1.372     .         A         
         C131      C132      1.381     .         A         
         C133      C134      1.377     .         A         
         C133      C138      1.384     .         A         
         C134      C135      1.378     .         A         
         C135      C136      1.381     .         A         
         C136      C137      1.367     .         A         
         C137      C138      1.376     .         A         
         O28       C142      1.334     .         A         
         O29       C144      1.322     .         A         
         O30       C143      1.321     .         A         
         O31       C142      1.334     .         A         
         O32       C143      1.322     1_455     A         
         O33       C144      1.323     1_655     A         
         O34       C139      1.333     .         A         
         O35       C141      1.324     1_655     A         
         O36       C139      1.335     .         A         
         O37       C141      1.322     .         A         
         O38       C140      1.325     1_455     A         
         O39       C140      1.323     .         A         
         C140      O38       1.325     1_655     A         
         C141      O35       1.324     1_455     A         
         C143      O32       1.322     1_655     A         
         C144      O33       1.323     1_455     A         
         C145      N19       1.340     .         A         
         C145      N21       1.346     .         A         
         C146      N19       1.338     .         A         
         C146      N20       1.335     .         A         
         C147      N20       1.340     .         A         
         C147      N21       1.346     .         A         
         C148      C149      1.372     .         A         
         C148      C153      1.381     .         A         
         C149      C150      1.375     .         A         
         C150      C151      1.381     .         A         
         C151      C152      1.377     .         A         
         C152      C153      1.378     .         A         
         C154      C155      1.380     .         A         
         C154      C159      1.382     .         A         
         C155      C156      1.382     .         A         
         C156      C157      1.378     .         A         
         C157      C158      1.367     .         A         
         C158      C159      1.380     .         A         
         C160      C161      1.367     .         A         
         C160      C165      1.376     .         A         
         C161      C162      1.381     .         A         
         C162      C163      1.378     .         A         
         C163      C164      1.377     .         A         
         C164      C165      1.384     .         A         
         C166      N22       1.343     .         A         
         C166      N24       1.336     .         A         
         C167      N22       1.346     .         A         
         C167      N23       1.346     .         A         
         C168      N23       1.342     .         A         
         C168      N24       1.338     .         A         
         C169      C170      1.377     .         A         
         C169      C174      1.378     .         A         
         C170      C171      1.381     .         A         
         C171      C172      1.375     .         A         
         C172      C173      1.372     .         A         
         C173      C174      1.381     .         A         
         C175      C176      1.366     .         A         
         C175      C180      1.379     .         A         
         C176      C177      1.379     .         A         
         C177      C178      1.381     .         A         
         C178      C179      1.382     .         A         
         C179      C180      1.384     .         A         
         C181      C182      1.376     .         A         
         C181      C186      1.380     .         A         
         C182      C183      1.378     .         A         
         C183      C184      1.380     .         A         
         C184      C185      1.375     .         A         
         C185      C186      1.377     .         A         
         O41       C190      1.316     .         A         
         O42       C192      1.320     .         A         
         O43       C191      1.336     .         A         
         O44       C190      1.324     .         A         
         O45       C191      1.333     1_554     A         
         O46       C192      1.325     .         A         
         O47       C187      1.321     .         A         
         O48       C189      1.316     .         A         
         O49       C187      1.322     .         A         
         O50       C189      1.322     .         A         
         O51       C188      1.336     .         A         
         O52       C188      1.333     .         A         
         C191      O45       1.333     1_556     A         
         O54       C196      1.320     .         A         
         O55       C198      1.336     1_545     A         
         O56       C197      1.316     .         A         
         O57       C196      1.324     .         A         
         O58       C197      1.324     .         A         
         O59       C198      1.333     .         A         
         O60       C193      1.323     .         A         
         O61       C195      1.333     1_545     A         
         O62       C193      1.316     .         A         
         O63       C195      1.335     .         A         
         O64       C194      1.321     .         A         
         O65       C194      1.321     .         A         
         C195      O61       1.333     1_565     A         
         C198      O55       1.336     1_565     A         
         O67       C202      1.322     .         A         
         O68       C204      1.323     .         A         
         O69       C203      1.334     .         A         
         O70       C202      1.324     .         A         
         O71       C203      1.334     1_554     A         
         O72       C204      1.325     .         A         
         O73       C199      1.322     .         A         
         O74       C201      1.321     .         A         
         O75       C199      1.323     .         A         
         O76       C201      1.322     .         A         
         O77       C200      1.335     1_554     A         
         O78       C200      1.333     .         A         
         C200      O77       1.335     1_556     A         
         C203      O71       1.334     1_556     A         
         C205      C206      1.403     .         A         
         C205      C210      1.378     .         A         
         C206      C207      1.419     .         A         
         C207      C208      1.451     .         A         
         C208      C209      1.420     .         A         
         C209      C210      1.402     .         A         
         C213      C214      1.402     .         A         
         C213      C218      1.378     .         A         
         C214      C215      1.419     .         A         
         C215      C216      1.451     .         A         
         C216      C217      1.420     .         A         
         C217      C218      1.402     .         A         
         C221      C222      1.403     .         A         
         C221      C226      1.379     1_565     A         
         C222      C223      1.420     1_556     A         
         C223      C222      1.420     1_554     A         
         C223      C224      1.451     1_565     A         
         C224      C223      1.451     1_545     A         
         C224      C225      1.420     1_554     A         
         C225      C224      1.420     1_556     A         
         C225      C226      1.402     .         A         
         C226      C221      1.379     1_545     A         
         C229      C230      1.402     .         A         
         C229      C234      1.379     .         A         
         C230      C231      1.420     1_556     A         
         C231      C230      1.420     1_554     A         
         C231      C232      1.452     .         A         
         C232      C233      1.420     1_554     A         
         C233      C232      1.420     1_556     A         
         C233      C234      1.403     .         A         
         C237      C238      1.402     .         A         
         C237      C242      1.378     1_554     A         
         C238      C239      1.419     1_565     A         
         C239      C238      1.419     1_545     A         
         C239      C240      1.451     1_554     A         
         C240      C239      1.451     1_556     A         
         C240      C241      1.420     1_545     A         
         C241      C240      1.420     1_565     A         
         C241      C242      1.402     .         A         
         C242      C237      1.378     1_556     A         
         C245      C246      1.402     .         A         
         C245      C250      1.378     .         A         
         C246      C247      1.419     1_565     A         
         C247      C246      1.419     1_545     A         
         C247      C248      1.451     .         A         
         C248      C249      1.419     1_545     A         
         C249      C248      1.419     1_565     A         
         C249      C250      1.402     .         A 