
##########################################################################
#               Crystallographic Information Format file
#               Produced by PyCifRW module
#
#  This is a CIF file.  CIF has been adopted by the International
#  Union of Crystallography as the standard for data archiving and
#  transmission.
#
#  For information on this file format, follow the CIF links at
#  http://www.iucr.org
##########################################################################

data_str_m1_o6_smn

_audit_creation_date                    2014-11-07T14:56:19-0500
_audit_creation_method                  'faps 1.5.0.0'
_symmetry_space_group_name_H-M          P1
_symmetry_Int_Tables_number             1
_space_group_crystal_system             triclinic
loop_
  _symmetry_equiv_pos_as_xyz
         'x,y,z' 
_cell_length_a                          22.1158785
_cell_length_b                          38.7237786
_cell_length_c                          38.6762668
_cell_angle_alpha                       116.368238
_cell_angle_beta                        78.8066981
_cell_angle_gamma                       79.0724218
_cell_volume                            27641.8246494
loop_
  _atom_site_label
  _atom_site_type_symbol
  _atom_site_description
  _atom_site_fract_x
  _atom_site_fract_y
  _atom_site_fract_z
  _atom_type_partial_charge
         Zn1       Zn        Zn3+2     0.531200  0.949399  0.450452  1.405323  
         Zn2       Zn        Zn3+2     0.570208  0.014965  0.516907  1.391641  
         Zn3       Zn        Zn3+2     0.447666  0.040324  0.494803  1.369020  
         Zn4       Zn        Zn3+2     0.447369  0.992384  0.541465  1.388791  
         O1        O         O_3       0.499110  0.999258  0.500908  -1.731593           
         O2        O         O_R       0.624583  0.929410  0.429150  -0.685323           
         O3        O         O_R       0.570126  0.067236  0.523451  -0.651518           
         O4        O         O_R       0.441764  0.020824  0.440657  -0.650324           
         O5        O         O_R       0.653331  0.977802  0.478198  -0.686089           
         O6        O         O_R       0.502426  0.953567  0.408178  -0.648775           
         O7        O         O_R       0.480280  0.085680  0.506387  -0.650824           
         O8        O         O_R       0.359383  0.063237  0.530281  -0.664420           
         O9        O         O_R       0.441800  0.938152  0.521102  -0.636019           
         O10       O         O_R       0.359053  0.027875  0.564816  -0.667594           
         O11       O         O_R       0.504605  0.906234  0.454124  -0.652932           
         O12       O         O_R       0.571615  0.018633  0.568060  -0.637311           
         O13       O         O_R       0.480201  0.002698  0.586564  -0.639523           
         C1        C         C_R       0.329219  0.055492  0.557531  0.739918  
         C2        C         C_R       0.531716  0.013032  0.593661  0.626788  
         C3        C         C_R       0.467717  0.905622  0.484794  0.646763  
         C4        C         C_R       0.669001  0.943910  0.443432  0.744174  
         C5        C         C_R       0.466146  0.984572  0.408009  0.656979  
         C6        C         C_R       0.530715  0.093057  0.518040  0.681373  
         Zn5       Zn        Zn3+2     0.800701  0.334519  0.640699  1.352894  
         Zn6       Zn        Zn3+2     0.898763  0.358915  0.687749  1.390616  
         Zn7       Zn        Zn3+2     0.793602  0.425252  0.688275  1.399138  
         Zn8       Zn        Zn3+2     0.753561  0.381446  0.735416  1.386586  
         O14       O         O_3       0.811648  0.375021  0.688033  -1.725795           
         O15       O         O_R       0.878661  0.289181  0.606269  -0.631536           
         O16       O         O_R       0.944710  0.396082  0.686514  -0.672148           
         O17       O         O_R       0.768055  0.421944  0.642332  -0.675395           
         O18       O         O_R       0.950604  0.306826  0.641441  -0.642078           
         O19       O         O_R       0.774466  0.354825  0.606830  -0.650604           
         O20       O         O_R       0.867073  0.445105  0.686864  -0.681602           
         O21       O         O_R       0.724275  0.468208  0.735558  -0.663480           
         O22       O         O_R       0.700649  0.346108  0.723063  -0.646967           
         O23       O         O_R       0.693787  0.435665  0.770014  -0.643965           
         O24       O         O_R       0.735519  0.311493  0.653191  -0.658707           
         O25       O         O_R       0.904582  0.354412  0.734720  -0.653534           
         O26       O         O_R       0.797374  0.370338  0.769536  -0.644886           
         C7        C         C_R       0.687094  0.468448  0.766708  0.681682  
         C8        C         C_R       0.859389  0.359733  0.765917  0.634943  
         C9        C         C_R       0.697994  0.318858  0.688131  0.701716  
         C10       C         C_R       0.936723  0.281407  0.610141  0.659331  
         C11       C         C_R       0.762366  0.391309  0.611026  0.709449  
         C12       C         C_R       0.926214  0.430250  0.686180  0.741691  
         Zn9       Zn        Zn3+2     0.202481  0.857576  0.163862  1.358378  
         Zn10      Zn        Zn3+2     0.250580  0.763078  0.116172  1.402943  
         Zn11      Zn        Zn3+2     0.105204  0.809958  0.138910  1.392253  
         Zn12      Zn        Zn3+2     0.210096  0.810547  0.072863  1.390442  
         O27       O         O_3       0.192105  0.810295  0.122955  -1.728521           
         O28       O         O_R       0.267775  0.845212  0.186732  -0.658092           
         O29       O         O_R       0.207310  0.728517  0.126900  -0.656180           
         O30       O         O_R       0.052893  0.855902  0.191184  -0.672679           
         O31       O         O_R       0.303271  0.775486  0.151553  -0.663498           
         O32       O         O_R       0.124430  0.891323  0.209314  -0.643384           
         O33       O         O_R       0.099923  0.762804  0.143098  -0.645471           
         O34       O         O_R       0.059426  0.811023  0.101653  -0.668900           
         O35       O         O_R       0.234621  0.856953  0.076733  -0.650579           
         O36       O         O_R       0.136918  0.811437  0.052827  -0.668369           
         O37       O         O_R       0.228012  0.891975  0.144024  -0.637848           
         O38       O         O_R       0.310620  0.729072  0.061811  -0.641069           
         O39       O         O_R       0.280068  0.763843  0.029667  -0.671120           
         C13       C         C_R       0.077942  0.811608  0.067531  0.727554  
         C14       C         C_R       0.317434  0.732734  0.029168  0.684607  
         C15       C         C_R       0.239892  0.888197  0.107638  0.660495  
         C16       C         C_R       0.305602  0.810364  0.179062  0.701981  
         C17       C         C_R       0.066464  0.887160  0.216905  0.700773  
         C18       C         C_R       0.145395  0.731763  0.137524  0.633763  
         Zn13      Zn        Zn3+2     0.704627  0.040351  0.981025  1.357078  
         Zn14      Zn        Zn3+2     0.710494  0.949821  0.933870  1.395971  
         Zn15      Zn        Zn3+2     0.606091  0.016406  0.934230  1.389503  
         Zn16      Zn        Zn3+2     0.751371  0.993137  0.886324  1.395272  
         O40       O         O_3       0.693168  0.999931  0.933863  -1.723741           
         O41       O         O_R       0.730377  0.020108  0.015059  -0.639610           
         O42       O         O_R       0.636771  0.930246  0.935211  -0.672494           
         O43       O         O_R       0.554694  0.068556  0.980608  -0.648904           
         O44       O         O_R       0.735631  0.953161  0.979943  -0.656124           
         O45       O         O_R       0.627126  0.085939  0.015442  -0.640981           
         O46       O         O_R       0.559609  0.979455  0.935499  -0.664979           
         O47       O         O_R       0.600373  0.021021  0.887349  -0.652463           
         O48       O         O_R       0.804899  0.028095  0.898403  -0.652042           
         O49       O         O_R       0.707670  0.004383  0.852201  -0.645214           
         O50       O         O_R       0.770381  0.062906  0.968274  -0.648378           
         O51       O         O_R       0.779810  0.906600  0.886657  -0.666478           
         O52       O         O_R       0.810611  0.938749  0.851826  -0.645874           
         C19       C         C_R       0.645628  0.015389  0.856005  0.637877  
         C20       C         C_R       0.817049  0.906099  0.855357  0.680544  
         C21       C         C_R       0.807941  0.055291  0.933232  0.681091  
         C22       C         C_R       0.741710  0.983742  0.011115  0.663640  
         C23       C         C_R       0.568962  0.093897  0.011762  0.669060  
         C24       C         C_R       0.577744  0.945270  0.935848  0.725558  
         Zn17      Zn        Zn3+2     0.325820  0.611493  0.540197  1.393010  
         Zn18      Zn        Zn3+2     0.371986  0.516991  0.493208  1.361849  
         Zn19      Zn        Zn3+2     0.227135  0.564820  0.515959  1.405839  
         Zn20      Zn        Zn3+2     0.332807  0.564145  0.449351  1.410717  
         O53       O         O_3       0.314453  0.564370  0.499684  -1.733695           
         O54       O         O_R       0.391003  0.598835  0.563065  -0.652688           
         O55       O         O_R       0.327633  0.483283  0.504851  -0.646390           
         O56       O         O_R       0.174712  0.612059  0.567327  -0.646004           
         O57       O         O_R       0.424987  0.529114  0.528361  -0.671621           
         O58       O         O_R       0.247859  0.646085  0.585547  -0.641444           
         O59       O         O_R       0.220542  0.518966  0.522332  -0.686490           
         O60       O         O_R       0.182478  0.563851  0.477632  -0.673069           
         O61       O         O_R       0.355952  0.610913  0.453051  -0.655154           
         O62       O         O_R       0.260549  0.563330  0.428393  -0.682005           
         O63       O         O_R       0.351819  0.645485  0.519918  -0.631064           
         O64       O         O_R       0.432076  0.482550  0.438914  -0.660970           
         O65       O         O_R       0.403896  0.517795  0.406761  -0.681169           
         C25       C         C_R       0.201685  0.563228  0.442912  0.739484  
         C26       C         C_R       0.440308  0.486468  0.406384  0.737149  
         C27       C         C_R       0.362241  0.641958  0.483672  0.631929  
         C28       C         C_R       0.428133  0.563858  0.555574  0.710797  
         C29       C         C_R       0.189089  0.643012  0.592904  0.615668  
         C30       C         C_R       0.265418  0.487626  0.516690  0.688422  
         Zn21      Zn        Zn3+2     0.034275  0.326563  0.071867  1.392862  
         Zn22      Zn        Zn3+2     0.072401  0.392555  0.138491  1.383667  
         Zn23      Zn        Zn3+2     0.950747  0.417401  0.115408  1.399399  
         Zn24      Zn        Zn3+2     0.949255  0.370083  0.162687  1.368721  
         O66       O         O_3       0.001674  0.376640  0.122111  -1.728503           
         O67       O         O_R       0.127653  0.305504  0.052172  -0.675765           
         O68       O         O_R       0.074168  0.443872  0.143036  -0.638259           
         O69       O         O_R       0.946221  0.397547  0.060942  -0.641438           
         O70       O         O_R       0.155755  0.354208  0.101335  -0.678950           
         O71       O         O_R       0.008669  0.330674  0.028674  -0.643635           
         O72       O         O_R       0.983747  0.462545  0.126560  -0.645947           
         O73       O         O_R       0.862122  0.440442  0.150498  -0.670927           
         O74       O         O_R       0.943108  0.316017  0.142465  -0.662756           
         O75       O         O_R       0.861051  0.405508  0.185464  -0.663115           
         O76       O         O_R       0.005087  0.284089  0.075314  -0.661370           
         O77       O         O_R       0.071306  0.398336  0.190718  -0.646660           
         O78       O         O_R       0.980917  0.381115  0.208302  -0.650571           
         C31       C         C_R       0.831548  0.432899  0.177816  0.719351  
         C32       C         C_R       0.031284  0.392618  0.216146  0.680648  
         C33       C         C_R       0.968030  0.283623  0.106018  0.707230  
         C34       C         C_R       0.171788  0.319725  0.067101  0.737267  
         C35       C         C_R       0.972304  0.361444  0.028185  0.623916  
         C36       C         C_R       0.034861  0.469600  0.137460  0.642908  
         H1        H         H_        0.216582  0.113099  0.517562  0.150411  
         C37       C         C_R       0.130850  0.164128  0.544907  -0.192601           
         H2        H         H_        0.131297  0.163428  0.516607  0.157667  
         C38       C         C_R       0.082463  0.193231  0.580474  0.229946  
         C39       C         C_R       0.081900  0.194127  0.616576  -0.161849           
         H3        H         H_        0.043977  0.216948  0.644454  0.156088  
         C40       C         C_R       0.129691  0.165906  0.617105  -0.187759           
         H4        H         H_        0.129232  0.166597  0.645403  0.151011  
         C41       C         C_R       0.178063  0.136792  0.581536  0.217021  
         C42       C         C_R       0.178653  0.135915  0.545439  -0.150597           
         C43       C         C_1       0.032688  0.222576  0.579919  -0.039650           
         C44       C         C_1       0.227768  0.107398  0.582076  -0.004955           
         C45       C         C_1       0.261913  0.077819  0.579934  -0.212484           
         C46       C         C_1       0.986195  0.244208  0.579470  -0.148925           
         H5        H         H_        0.694566  0.190970  0.627277  0.132261  
         C47       C         C_R       0.631884  0.171526  0.592061  -0.153911           
         H6        H         H_        0.652861  0.139830  0.582282  0.152119  
         C48       C         C_R       0.581737  0.183291  0.579310  0.249630  
         C49       C         C_R       0.554964  0.223723  0.591783  -0.196865           
         H7        H         H_        0.515653  0.232949  0.581789  0.149125  
         C50       C         C_R       0.578334  0.252385  0.617000  -0.116544           
         H8        H         H_        0.557342  0.284078  0.626777  0.137142  
         C51       C         C_R       0.628479  0.240623  0.629755  0.139549  
         C52       C         C_R       0.655259  0.200189  0.617278  -0.142425           
         C53       C         C_1       0.557432  0.153460  0.553054  -0.056138           
         C54       C         C_1       0.652758  0.270459  0.656030  0.094356  
         C55       C         C_1       0.653022  0.296565  0.688112  -0.254349           
         C56       C         C_1       0.543029  0.130335  0.525128  -0.149353           
         H9        H         H_        0.350770  0.910236  0.241191  0.155955  
         C57       C         C_R       0.389740  0.932607  0.290337  -0.211400           
         H10       H         H_        0.386014  0.961331  0.291421  0.154087  
         C58       C         C_R       0.414244  0.924607  0.317115  0.279286  
         C59       C         C_R       0.418995  0.887969  0.315739  -0.174296           
         H11       H         H_        0.438198  0.881710  0.336738  0.164735  
         C60       C         C_R       0.399254  0.859331  0.287580  -0.196765           
         H12       H         H_        0.402984  0.830606  0.286494  0.150326  
         C61       C         C_R       0.374752  0.867331  0.260800  0.226108  
         C62       C         C_R       0.369987  0.903972  0.262183  -0.140296           
         C63       C         C_1       0.434794  0.954406  0.346417  -0.102172           
         C64       C         C_1       0.354222  0.837528  0.231490  -0.025258           
         C65       C         C_1       0.350557  0.810414  0.201302  -0.181913           
         C66       C         C_1       0.452756  0.978674  0.371270  -0.105888           
         H13       H         H_        0.970697  0.936492  0.351557  0.134075  
         C67       C         C_R       0.877242  0.933029  0.374139  -0.131804           
         H14       H         H_        0.878208  0.945298  0.405097  0.134297  
         C68       C         C_R       0.824160  0.922313  0.364665  0.194585  
         C69       C         C_R       0.822935  0.906661  0.325169  -0.157321           
         H15       H         H_        0.781324  0.898261  0.317745  0.142791  
         C70       C         C_R       0.874791  0.901717  0.295152  -0.134409           
         H16       H         H_        0.873844  0.889444  0.264190  0.141040  
         C71       C         C_R       0.927869  0.912435  0.304628  0.180026  
         C72       C         C_R       0.929091  0.928090  0.344124  -0.160816           
         C73       C         C_1       0.770218  0.927430  0.395897  -0.017047           
         C74       C         C_1       0.981814  0.907311  0.273396  0.045517  
         C75       C         C_1       0.016764  0.917458  0.254236  -0.218756           
         C76       C         C_1       0.736297  0.922258  0.420428  -0.177742           
         H17       H         H_        0.596377  0.959848  0.735797  0.160579  
         C77       C         C_R       0.577593  0.985726  0.698863  -0.218044           
         H18       H         H_        0.570855  0.958879  0.676288  0.166778  
         C78       C         C_R       0.571878  0.019430  0.694299  0.353090  
         C79       C         C_R       0.580474  0.053677  0.723102  -0.239699           
         H19       H         H_        0.575996  0.080098  0.719527  0.163199  
         C80       C         C_R       0.594778  0.054220  0.756460  -0.203041           
         H20       H         H_        0.601513  0.081067  0.779036  0.156339  
         C81       C         C_R       0.600492  0.020516  0.761024  0.336916  
         C82       C         C_R       0.591899  0.986268  0.732221  -0.217104           
         C83       C         C_1       0.556989  0.018865  0.659582  -0.207575           
         C84       C         C_1       0.615375  0.021082  0.795743  -0.192465           
         C85       C         C_1       0.626799  0.021391  0.825090  -0.025893           
         C86       C         C_1       0.544764  0.018321  0.630337  -0.022457           
         H21       H         H_        0.530013  0.773265  0.466160  0.160395  
         C87       C         C_R       0.467626  0.738839  0.471662  -0.218458           
         H22       H         H_        0.506708  0.713517  0.465908  0.159201  
         C88       C         C_R       0.404709  0.737640  0.478856  0.327347  
         C89       C         C_R       0.354860  0.769950  0.486195  -0.215911           
         H23       H         H_        0.305539  0.769017  0.491836  0.167313  
         C90       C         C_R       0.367925  0.803444  0.486337  -0.210645           
         H24       H         H_        0.328844  0.828766  0.492088  0.157040  
         C91       C         C_R       0.430843  0.804642  0.479138  0.315644  
         C92       C         C_R       0.480691  0.772333  0.471803  -0.206569           
         C93       C         C_1       0.391113  0.702775  0.478698  -0.186392           
         C94       C         C_1       0.444443  0.839498  0.479274  -0.164307           
         C95       C         C_1       0.455458  0.868505  0.478497  -0.060384           
         C96       C         C_1       0.380914  0.672792  0.477387  -0.031052           
         H25       H         H_        0.533983  0.659953  0.941229  0.159597  
         C97       C         C_R       0.566818  0.601452  0.887851  -0.203254           
         H26       H         H_        0.617322  0.599982  0.881964  0.161083  
         C98       C         C_R       0.549118  0.569706  0.862132  0.321141  
         C99       C         C_R       0.484686  0.571587  0.869647  -0.212177           
         H27       H         H_        0.470805  0.546704  0.849491  0.159880  
         C100      C         C_R       0.437969  0.605205  0.902870  -0.208546           
         H28       H         H_        0.387464  0.606676  0.908756  0.166582  
         C101      C         C_R       0.455669  0.636952  0.928587  0.319142  
         C102      C         C_R       0.520101  0.635070  0.921073  -0.213425           
         C103      C         C_1       0.597740  0.534719  0.827553  -0.193285           
         C104      C         C_1       0.407046  0.671943  0.963161  -0.191462           
         C105      C         C_1       0.366978  0.701926  0.991983  -0.052251           
         C106      C         C_1       0.637888  0.505501  0.797961  -0.053255           
         H29       H         H_        0.635292  0.532225  0.566483  0.134678  
         C107      C         C_R       0.667255  0.482949  0.576674  -0.133478           
         H30       H         H_        0.715456  0.485500  0.574887  0.144577  
         C108      C         C_R       0.650714  0.453498  0.583665  0.199618  
         C109      C         C_R       0.589220  0.450247  0.585944  -0.163317           
         H31       H         H_        0.576253  0.427160  0.591423  0.135443  
         C110      C         C_R       0.544282  0.476435  0.581225  -0.147152           
         H32       H         H_        0.496079  0.473888  0.583007  0.155549  
         C111      C         C_R       0.560824  0.505888  0.574238  0.183607  
         C112      C         C_R       0.622318  0.509139  0.571960  -0.172188           
         C113      C         C_1       0.697499  0.426223  0.588543  0.017391  
         C114      C         C_1       0.514040  0.533163  0.569363  0.052395  
         C115      C         C_1       0.473275  0.563569  0.577634  -0.223905           
         C116      C         C_1       0.742274  0.397902  0.580736  -0.208028           
         H33       H         H_        0.991414  0.479002  0.608476  0.162860  
         C117      C         C_R       0.088611  0.474655  0.581781  -0.114167           
         H34       H         H_        0.075098  0.488263  0.564180  0.138207  
         C118      C         C_R       0.152771  0.462484  0.579400  0.168332  
         C119      C         C_R       0.170023  0.445126  0.601853  -0.149557           
         H35       H         H_        0.220316  0.435584  0.599989  0.129505  
         C120      C         C_R       0.123125  0.439937  0.626679  -0.173834           
         H36       H         H_        0.136654  0.426333  0.644279  0.149034  
         C121      C         C_R       0.058964  0.452107  0.629061  0.253085  
         C122      C         C_R       0.041711  0.469462  0.606606  -0.209087           
         C123      C         C_1       0.201579  0.467867  0.553549  0.061249  
         C124      C         C_1       0.010152  0.446729  0.654918  -0.042755           
         C125      C         C_1       0.971877  0.451857  0.684916  -0.174964           
         C126      C         C_1       0.245938  0.457380  0.523710  -0.209876           
         H37       H         H_        0.888346  0.419528  0.958374  0.170573  
         C127      C         C_R       0.887152  0.390947  0.897003  -0.202735           
         H38       H         H_        0.862480  0.419074  0.899137  0.159286  
         C128      C         C_R       0.904128  0.354810  0.861070  0.328070  
         C129      C         C_R       0.935603  0.318927  0.858349  -0.204769           
         H39       H         H_        0.948912  0.290599  0.830183  0.153454  
         C130      C         C_R       0.950100  0.319181  0.891553  -0.231116           
         H40       H         H_        0.974774  0.291053  0.889417  0.163593  
         C131      C         C_R       0.933127  0.355318  0.927485  0.357408  
         C132      C         C_R       0.901651  0.391201  0.930207  -0.227345           
         C133      C         C_1       0.889046  0.354546  0.826513  -0.188719           
         C134      C         C_1       0.948218  0.355583  0.962040  -0.210555           
         C135      C         C_1       0.960795  0.355481  0.990958  -0.024091           
         C136      C         C_1       0.878253  0.353833  0.796873  -0.019973           
         H41       H         H_        0.981441  0.838902  0.977286  0.150406  
         C137      C         C_R       0.895743  0.889930  0.004614  -0.106382           
         H42       H         H_        0.891946  0.886386  0.975852  0.137216  
         C138      C         C_R       0.850410  0.921075  0.040509  0.176706  
         C139      C         C_R       0.855232  0.925611  0.077209  -0.169361           
         H43       H         H_        0.819692  0.950030  0.105346  0.139611  
         C140      C         C_R       0.905388  0.899004  0.078017  -0.176810           
         H44       H         H_        0.909177  0.902555  0.106783  0.155547  
         C141      C         C_R       0.950723  0.867857  0.042123  0.240741  
         C142      C         C_R       0.945900  0.863321  0.005422  -0.208064           
         C143      C         C_1       0.798227  0.948765  0.039666  0.007244  
         C144      C         C_1       0.002907  0.840166  0.042967  -0.034236           
         C145      C         C_1       0.032520  0.812514  0.045774  -0.175548           
         C146      C         C_1       0.761258  0.977249  0.041590  -0.157628           
         H45       H         H_        0.398731  0.853717  0.015428  0.132183  
         C147      C         C_R       0.448832  0.883563  0.990406  -0.201521           
         H46       H         H_        0.488254  0.856162  0.968470  0.149126  
         C148      C         C_R       0.448717  0.919892  0.992067  0.250019  
         C149      C         C_R       0.398429  0.954847  0.020048  -0.186385           
         H47       H         H_        0.398344  0.983323  0.021349  0.155848  
         C150      C         C_R       0.348259  0.953473  0.046362  -0.151832           
         H48       H         H_        0.308838  0.980876  0.068297  0.136402  
         C151      C         C_R       0.348374  0.917145  0.044700  0.156555  
         C152      C         C_R       0.398659  0.882189  0.016721  -0.100372           
         C153      C         C_1       0.500913  0.921323  0.964676  -0.048944           
         C154      C         C_1       0.296177  0.915714  0.072089  0.032288  
         C155      C         C_1       0.259162  0.918930  0.101481  -0.173058           
         C156      C         C_1       0.531829  0.923808  0.937032  -0.170001           
         H49       H         H_        0.199905  0.604796  0.130431  0.168143  
         C157      C         C_R       0.136464  0.570945  0.135931  -0.201758           
         H50       H         H_        0.175014  0.545544  0.130525  0.151829  
         C158      C         C_R       0.073331  0.570131  0.142880  0.315703  
         C159      C         C_R       0.024152  0.602534  0.149775  -0.195354           
         H51       H         H_        0.974663  0.601895  0.155221  0.159850  
         C160      C         C_R       0.038104  0.635747  0.149723  -0.224315           
         H52       H         H_        0.999553  0.661148  0.155129  0.159685  
         C161      C         C_R       0.101237  0.636561  0.142775  0.348347  
         C162      C         C_R       0.150416  0.604157  0.135878  -0.212629           
         C163      C         C_1       0.058811  0.535569  0.142936  -0.168252           
         C164      C         C_1       0.115757  0.671124  0.142722  -0.205561           
         C165      C         C_1       0.126952  0.700564  0.143170  -0.025094           
         C166      C         C_1       0.048122  0.506374  0.143413  -0.058906           
         H53       H         H_        0.973410  0.712627  0.683612  0.158499  
         C167      C         C_R       0.939256  0.771969  0.735891  -0.198516           
         H54       H         H_        0.889424  0.772130  0.742971  0.161783  
         C168      C         C_R       0.955738  0.805123  0.760139  0.313437  
         C169      C         C_R       0.019310  0.804915  0.751105  -0.204432           
         H55       H         H_        0.032233  0.830903  0.770111  0.160209  
         C170      C         C_R       0.066389  0.771559  0.717831  -0.205458           
         H56       H         H_        0.116220  0.771397  0.710751  0.161078  
         C171      C         C_R       0.049906  0.738405  0.693584  0.353825  
         C172      C         C_R       0.986334  0.738614  0.702618  -0.217896           
         C173      C         C_1       0.906742  0.839836  0.794770  -0.194203           
         C174      C         C_1       0.098902  0.703691  0.658955  -0.236900           
         C175      C         C_1       0.139367  0.674249  0.629774  -0.001126           
         C176      C         C_1       0.866041  0.868905  0.824191  -0.044231           
         H57       H         H_        0.362454  0.202329  0.975791  0.151676  
         C177      C         C_R       0.417239  0.177141  0.003563  -0.150058           
         H58       H         H_        0.450641  0.152177  0.974903  0.155067  
         C178      C         C_R       0.424067  0.180875  0.039635  0.213515  
         C179      C         C_R       0.381469  0.212711  0.076206  -0.185701           
         H59       H         H_        0.386827  0.215635  0.104482  0.153544  
         C180      C         C_R       0.332039  0.240814  0.076707  -0.170513           
         H60       H         H_        0.298640  0.265770  0.105373  0.150833  
         C181      C         C_R       0.325211  0.237085  0.040637  0.252377  
         C182      C         C_R       0.367813  0.205248  0.004065  -0.198695           
         C183      C         C_1       0.475501  0.151629  0.039109  -0.018707           
         C184      C         C_1       0.273778  0.266337  0.041163  -0.052382           
         C185      C         C_1       0.239174  0.297001  0.045507  -0.164157           
         C186      C         C_1       0.519807  0.131196  0.042511  -0.163794           
         H61       H         H_        0.004270  0.174753  0.998536  0.148653  
         C187      C         C_R       0.943309  0.138125  0.979235  -0.173509           
         H62       H         H_        0.977499  0.117879  0.949061  0.141190  
         C188      C         C_R       0.884682  0.132074  0.989990  0.202801  
         C189      C         C_R       0.841067  0.157902  0.028480  -0.137787           
         H63       H         H_        0.795114  0.153149  0.036900  0.158260  
         C190      C         C_R       0.856079  0.189781  0.056212  -0.191193           
         H64       H         H_        0.821894  0.210028  0.086387  0.144426  
         C191      C         C_R       0.914708  0.195832  0.045457  0.223426  
         C192      C         C_R       0.958318  0.170004  0.006965  -0.145647           
         C193      C         C_1       0.869047  0.098911  0.961130  -0.005086           
         C194      C         C_1       0.930350  0.228992  0.074319  -0.016316           
         C195      C         C_1       0.954331  0.246842  0.099555  -0.190226           
         C196      C         C_1       0.853418  0.077219  0.933012  -0.176256           
         H65       H         H_        0.109974  0.415283  0.331437  0.142794  
         C197      C         C_R       0.127813  0.472033  0.360825  -0.171242           
         H66       H         H_        0.143551  0.466182  0.383021  0.151370  
         C198      C         C_R       0.126544  0.508040  0.361435  0.254027  
         C199      C         C_R       0.106473  0.515506  0.333116  -0.203855           
         H67       H         H_        0.105482  0.543731  0.333593  0.157855  
         C200      C         C_R       0.087665  0.486973  0.304195  -0.144430           
         H68       H         H_        0.071932  0.492817  0.281992  0.150945  
         C201      C         C_R       0.088913  0.450974  0.303595  0.185693  
         C202      C         C_R       0.108994  0.443505  0.331909  -0.160207           
         C203      C         C_1       0.146099  0.537735  0.391543  -0.074973           
         C204      C         C_1       0.069303  0.421295  0.273515  -0.008708           
         C205      C         C_1       0.042870  0.399156  0.253494  -0.169918           
         C206      C         C_1       0.157248  0.562310  0.420192  -0.150533           
         H69       H         H_        0.611330  0.513047  0.273574  0.153293  
         C207      C         C_R       0.573944  0.488822  0.309975  -0.180906           
         H70       H         H_        0.528767  0.513515  0.326705  0.163962  
         C208      C         C_R       0.585293  0.457578  0.318416  0.262002  
         C209      C         C_R       0.642923  0.426076  0.297087  -0.191759           
         H71       H         H_        0.651812  0.401586  0.303709  0.152692  
         C210      C         C_R       0.689206  0.425815  0.267315  -0.180601           
         H72       H         H_        0.734391  0.401128  0.250591  0.171224  
         C211      C         C_R       0.677851  0.457055  0.258868  0.258906  
         C212      C         C_R       0.620221  0.488558  0.280198  -0.190098           
         C213      C         C_1       0.537126  0.457851  0.349395  -0.064077           
         C214      C         C_1       0.726010  0.456777  0.227882  -0.065055           
         C215      C         C_1       0.764141  0.455166  0.199898  -0.160526           
         C216      C         C_1       0.490447  0.455748  0.369473  -0.168748 
loop_
  _geom_bond_atom_site_label_1
  _geom_bond_atom_site_label_2
  _geom_bond_distance
  _geom_bond_site_symmetry_2
  _ccdc_geom_bond_type
         Zn1       O1        1.907     .         S         
         Zn1       O2        1.926     .         S         
         Zn1       O6        1.925     .         S         
         Zn1       O11       1.926     .         S         
         Zn2       O1        1.906     1_545     S         
         Zn2       O3        1.925     .         S         
         Zn2       O5        1.925     1_545     S         
         Zn2       O12       1.926     .         S         
         Zn3       O1        1.905     1_545     S         
         Zn3       O4        1.927     .         S         
         Zn3       O7        1.927     .         S         
         Zn3       O8        1.925     .         S         
         Zn4       O1        1.905     .         S         
         Zn4       O9        1.927     .         S         
         Zn4       O10       1.927     1_565     S         
         Zn4       O13       1.927     1_565     S         
         O1        Zn2       1.906     1_565     S         
         O1        Zn3       1.905     1_565     S         
         O5        Zn2       1.925     1_565     S         
         O10       Zn4       1.927     1_545     S         
         O13       Zn4       1.927     1_545     S         
         C1        C45       1.435     .         S         
         C2        C86       1.435     .         S         
         C3        C95       1.436     .         S         
         C4        C76       1.435     .         S         
         C5        C66       1.435     .         S         
         C6        C56       1.435     .         S         
         Zn5       O14       1.907     .         S         
         Zn5       O15       1.927     .         S         
         Zn5       O19       1.926     .         S         
         Zn5       O24       1.925     .         S         
         Zn6       O14       1.906     .         S         
         Zn6       O16       1.924     .         S         
         Zn6       O18       1.926     .         S         
         Zn6       O25       1.926     .         S         
         Zn7       O14       1.906     .         S         
         Zn7       O17       1.926     .         S         
         Zn7       O20       1.926     .         S         
         Zn7       O21       1.925     .         S         
         Zn8       O14       1.905     .         S         
         Zn8       O22       1.927     .         S         
         Zn8       O23       1.927     .         S         
         Zn8       O26       1.926     .         S         
         C7        C106      1.436     .         S         
         C8        C136      1.435     .         S         
         C9        C55       1.435     .         S         
         C10       C46       1.435     .         S         
         C11       C116      1.435     .         S         
         C12       C125      1.435     .         S         
         Zn9       O27       1.907     .         S         
         Zn9       O28       1.925     .         S         
         Zn9       O32       1.925     .         S         
         Zn9       O37       1.925     .         S         
         Zn10      O27       1.905     .         S         
         Zn10      O29       1.924     .         S         
         Zn10      O31       1.926     .         S         
         Zn10      O38       1.927     .         S         
         Zn11      O27       1.905     .         S         
         Zn11      O30       1.926     .         S         
         Zn11      O33       1.926     .         S         
         Zn11      O34       1.925     .         S         
         Zn12      O27       1.905     .         S         
         Zn12      O35       1.926     .         S         
         Zn12      O36       1.926     .         S         
         Zn12      O39       1.926     .         S         
         C13       C145      1.435     .         S         
         C14       C105      1.436     1_554     S         
         C15       C155      1.435     .         S         
         C16       C65       1.435     .         S         
         C17       C75       1.435     .         S         
         C18       C165      1.435     .         S         
         Zn13      O40       1.907     1_545     S         
         Zn13      O41       1.926     1_556     S         
         Zn13      O45       1.925     1_556     S         
         Zn13      O50       1.925     .         S         
         Zn14      O40       1.905     .         S         
         Zn14      O42       1.925     .         S         
         Zn14      O44       1.926     .         S         
         Zn14      O51       1.926     .         S         
         Zn15      O40       1.906     1_545     S         
         Zn15      O43       1.926     .         S         
         Zn15      O46       1.925     1_545     S         
         Zn15      O47       1.925     .         S         
         Zn16      O40       1.905     .         S         
         Zn16      O48       1.927     1_565     S         
         Zn16      O49       1.927     1_565     S         
         Zn16      O52       1.926     .         S         
         O40       Zn13      1.907     1_565     S         
         O40       Zn15      1.906     1_565     S         
         O41       Zn13      1.926     1_554     S         
         O45       Zn13      1.925     1_554     S         
         O46       Zn15      1.925     1_565     S         
         O48       Zn16      1.927     1_545     S         
         O49       Zn16      1.927     1_545     S         
         C19       C85       1.435     .         S         
         C20       C176      1.435     .         S         
         C21       C196      1.435     .         S         
         C22       C146      1.435     .         S         
         C23       C186      1.435     .         S         
         C24       C156      1.435     .         S         
         Zn17      O53       1.907     .         S         
         Zn17      O54       1.927     .         S         
         Zn17      O58       1.925     .         S         
         Zn17      O63       1.925     .         S         
         Zn18      O53       1.905     .         S         
         Zn18      O55       1.925     .         S         
         Zn18      O57       1.924     .         S         
         Zn18      O64       1.926     .         S         
         Zn19      O53       1.906     .         S         
         Zn19      O56       1.926     .         S         
         Zn19      O59       1.926     .         S         
         Zn19      O60       1.925     .         S         
         Zn20      O53       1.906     .         S         
         Zn20      O61       1.927     .         S         
         Zn20      O62       1.926     .         S         
         Zn20      O65       1.925     .         S         
         C25       C206      1.435     .         S         
         C26       C216      1.435     .         S         
         C27       C96       1.436     .         S         
         C28       C115      1.435     .         S         
         C29       C175      1.435     .         S         
         C30       C126      1.435     .         S         
         Zn21      O66       1.907     .         S         
         Zn21      O67       1.926     .         S         
         Zn21      O71       1.925     .         S         
         Zn21      O76       1.924     .         S         
         Zn22      O66       1.906     .         S         
         Zn22      O68       1.924     .         S         
         Zn22      O70       1.925     .         S         
         Zn22      O77       1.926     .         S         
         Zn23      O66       1.905     1_655     S         
         Zn23      O69       1.926     .         S         
         Zn23      O72       1.926     .         S         
         Zn23      O73       1.926     .         S         
         Zn24      O66       1.905     1_655     S         
         Zn24      O74       1.926     .         S         
         Zn24      O75       1.926     .         S         
         Zn24      O78       1.926     .         S         
         O66       Zn23      1.905     1_455     S         
         O66       Zn24      1.905     1_455     S         
         C31       C215      1.435     .         S         
         C32       C205      1.435     .         S         
         C33       C195      1.435     .         S         
         C34       C185      1.435     .         S         
         C35       C135      1.435     1_554     S         
         C36       C166      1.435     .         S         
         H1        C42       1.081     .         S         
         C37       H2        1.081     .         S         
         C38       C43       1.435     .         S         
         C39       H3        1.081     .         S         
         C40       H4        1.081     .         S         
         C41       C44       1.435     .         S         
         H5        C52       1.081     .         S         
         C47       H6        1.081     .         S         
         C48       C53       1.435     .         S         
         C49       H7        1.081     .         S         
         C50       H8        1.081     .         S         
         C51       C54       1.435     .         S         
         H9        C62       1.081     .         S         
         C57       H10       1.081     .         S         
         C58       C63       1.435     .         S         
         C59       H11       1.081     .         S         
         C60       H12       1.081     .         S         
         C61       C64       1.435     .         S         
         H13       C72       1.081     .         S         
         C67       H14       1.081     .         S         
         C68       C73       1.435     .         S         
         C69       H15       1.081     .         S         
         C70       H16       1.081     .         S         
         C71       C74       1.435     .         S         
         H17       C82       1.081     .         S         
         C77       H18       1.081     .         S         
         C78       C83       1.435     .         S         
         C79       H19       1.081     .         S         
         C80       H20       1.081     .         S         
         C81       C84       1.435     .         S         
         H21       C92       1.081     .         S         
         C87       H22       1.081     .         S         
         C88       C93       1.435     .         S         
         C89       H23       1.081     .         S         
         C90       H24       1.081     .         S         
         C91       C94       1.435     .         S         
         H25       C102      1.081     .         S         
         C97       H26       1.081     .         S         
         C98       C103      1.435     .         S         
         C99       H27       1.081     .         S         
         C100      H28       1.081     .         S         
         C101      C104      1.435     .         S         
         C105      C14       1.436     1_556     S         
         H29       C112      1.081     .         S         
         C107      H30       1.081     .         S         
         C108      C113      1.435     .         S         
         C109      H31       1.081     .         S         
         C110      H32       1.081     .         S         
         C111      C114      1.435     .         S         
         H33       C122      1.081     1_655     S         
         C117      H34       1.081     .         S         
         C118      C123      1.435     .         S         
         C119      H35       1.081     .         S         
         C120      H36       1.081     .         S         
         C121      C124      1.435     .         S         
         C122      H33       1.081     1_455     S         
         H37       C132      1.081     .         S         
         C127      H38       1.081     .         S         
         C128      C133      1.435     .         S         
         C129      H39       1.081     .         S         
         C130      H40       1.081     .         S         
         C131      C134      1.435     .         S         
         C135      C35       1.435     1_556     S         
         H41       C142      1.081     1_556     S         
         C137      H42       1.081     1_554     S         
         H42       C137      1.081     1_556     S         
         C138      C143      1.435     .         S         
         C139      H43       1.081     .         S         
         C140      H44       1.081     .         S         
         C141      C144      1.435     1_655     S         
         C142      H41       1.081     1_554     S         
         C144      C141      1.435     1_455     S         
         H45       C152      1.081     .         S         
         C147      H46       1.081     .         S         
         C148      C153      1.435     .         S         
         C149      H47       1.081     .         S         
         C150      H48       1.081     .         S         
         C151      C154      1.435     .         S         
         H49       C162      1.081     .         S         
         C157      H50       1.081     .         S         
         C158      C163      1.435     .         S         
         C159      H51       1.081     1_455     S         
         H51       C159      1.081     1_655     S         
         C160      H52       1.081     1_455     S         
         H52       C160      1.081     1_655     S         
         C161      C164      1.435     .         S         
         H53       C172      1.081     .         S         
         C167      H54       1.081     .         S         
         C168      C173      1.435     .         S         
         C169      H55       1.081     .         S         
         C170      H56       1.081     .         S         
         C171      C174      1.435     .         S         
         H57       C182      1.081     1_556     S         
         C177      H58       1.081     1_554     S         
         H58       C177      1.081     1_556     S         
         C178      C183      1.435     .         S         
         C179      H59       1.081     .         S         
         C180      H60       1.081     .         S         
         C181      C184      1.435     .         S         
         C182      H57       1.081     1_554     S         
         H61       C192      1.081     1_456     S         
         C187      H62       1.081     .         S         
         C188      C193      1.435     .         S         
         C189      H63       1.081     .         S         
         C190      H64       1.081     .         S         
         C191      C194      1.435     .         S         
         C192      H61       1.081     1_654     S         
         H65       C202      1.081     .         S         
         C197      H66       1.081     .         S         
         C198      C203      1.435     .         S         
         C199      H67       1.081     .         S         
         C200      H68       1.081     .         S         
         C201      C204      1.435     .         S         
         H69       C212      1.081     .         S         
         C207      H70       1.081     .         S         
         C208      C213      1.435     .         S         
         C209      H71       1.081     .         S         
         C210      H72       1.081     .         S         
         C211      C214      1.435     .         S         
         O2        C4        1.315     .         A         
         O3        C6        1.315     .         A         
         O4        C5        1.315     1_545     A         
         O5        C4        1.315     .         A         
         O6        C5        1.315     .         A         
         O7        C6        1.315     .         A         
         O8        C1        1.315     .         A         
         O9        C3        1.315     .         A         
         O10       C1        1.316     .         A         
         O11       C3        1.315     .         A         
         O12       C2        1.315     .         A         
         O13       C2        1.315     .         A         
         C5        O4        1.315     1_565     A         
         O15       C10       1.315     .         A         
         O16       C12       1.315     .         A         
         O17       C11       1.315     .         A         
         O18       C10       1.315     .         A         
         O19       C11       1.315     .         A         
         O20       C12       1.315     .         A         
         O21       C7        1.315     .         A         
         O22       C9        1.315     .         A         
         O23       C7        1.315     .         A         
         O24       C9        1.315     .         A         
         O25       C8        1.315     .         A         
         O26       C8        1.315     .         A         
         O28       C16       1.315     .         A         
         O29       C18       1.315     .         A         
         O30       C17       1.315     .         A         
         O31       C16       1.315     .         A         
         O32       C17       1.315     .         A         
         O33       C18       1.315     .         A         
         O34       C13       1.315     .         A         
         O35       C15       1.315     .         A         
         O36       C13       1.315     .         A         
         O37       C15       1.315     .         A         
         O38       C14       1.315     .         A         
         O39       C14       1.315     .         A         
         O41       C22       1.315     1_545     A         
         O42       C24       1.315     .         A         
         O43       C23       1.315     1_556     A         
         O44       C22       1.315     1_556     A         
         O45       C23       1.315     .         A         
         O46       C24       1.315     .         A         
         O47       C19       1.315     .         A         
         O48       C21       1.315     .         A         
         O49       C19       1.315     .         A         
         O50       C21       1.315     .         A         
         O51       C20       1.315     .         A         
         O52       C20       1.315     .         A         
         C22       O41       1.315     1_565     A         
         C22       O44       1.315     1_554     A         
         C23       O43       1.315     1_554     A         
         O54       C28       1.315     .         A         
         O55       C30       1.315     .         A         
         O56       C29       1.315     .         A         
         O57       C28       1.315     .         A         
         O58       C29       1.315     .         A         
         O59       C30       1.315     .         A         
         O60       C25       1.315     .         A         
         O61       C27       1.315     .         A         
         O62       C25       1.315     .         A         
         O63       C27       1.315     .         A         
         O64       C26       1.315     .         A         
         O65       C26       1.315     .         A         
         O67       C34       1.315     .         A         
         O68       C36       1.315     .         A         
         O69       C35       1.315     .         A         
         O70       C34       1.315     .         A         
         O71       C35       1.315     1_455     A         
         O72       C36       1.315     1_655     A         
         O73       C31       1.315     .         A         
         O74       C33       1.315     .         A         
         O75       C31       1.315     .         A         
         O76       C33       1.315     1_455     A         
         O77       C32       1.315     .         A         
         O78       C32       1.315     1_655     A         
         C32       O78       1.315     1_455     A         
         C33       O76       1.315     1_655     A         
         C35       O71       1.315     1_655     A         
         C36       O72       1.315     1_455     A         
         C37       C38       1.379     .         A         
         C37       C42       1.379     .         A         
         C38       C39       1.379     .         A         
         C39       C40       1.379     .         A         
         C40       C41       1.379     .         A         
         C41       C42       1.379     .         A         
         C47       C48       1.379     .         A         
         C47       C52       1.379     .         A         
         C48       C49       1.379     .         A         
         C49       C50       1.379     .         A         
         C50       C51       1.379     .         A         
         C51       C52       1.379     .         A         
         C57       C58       1.379     .         A         
         C57       C62       1.379     .         A         
         C58       C59       1.379     .         A         
         C59       C60       1.379     .         A         
         C60       C61       1.379     .         A         
         C61       C62       1.379     .         A         
         C67       C68       1.379     .         A         
         C67       C72       1.379     .         A         
         C68       C69       1.379     .         A         
         C69       C70       1.379     .         A         
         C70       C71       1.379     .         A         
         C71       C72       1.379     .         A         
         C77       C78       1.379     1_565     A         
         C77       C82       1.379     .         A         
         C78       C77       1.379     1_545     A         
         C78       C79       1.379     .         A         
         C79       C80       1.379     .         A         
         C80       C81       1.379     .         A         
         C81       C82       1.379     1_545     A         
         C82       C81       1.379     1_565     A         
         C87       C88       1.379     .         A         
         C87       C92       1.379     .         A         
         C88       C89       1.379     .         A         
         C89       C90       1.379     .         A         
         C90       C91       1.379     .         A         
         C91       C92       1.379     .         A         
         C97       C98       1.379     .         A         
         C97       C102      1.379     .         A         
         C98       C99       1.379     .         A         
         C99       C100      1.379     .         A         
         C100      C101      1.379     .         A         
         C101      C102      1.379     .         A         
         C107      C108      1.379     .         A         
         C107      C112      1.379     .         A         
         C108      C109      1.379     .         A         
         C109      C110      1.379     .         A         
         C110      C111      1.379     .         A         
         C111      C112      1.379     .         A         
         C117      C118      1.379     .         A         
         C117      C122      1.379     .         A         
         C118      C119      1.379     .         A         
         C119      C120      1.379     .         A         
         C120      C121      1.379     .         A         
         C121      C122      1.379     .         A         
         C127      C128      1.379     .         A         
         C127      C132      1.379     .         A         
         C128      C129      1.379     .         A         
         C129      C130      1.379     .         A         
         C130      C131      1.379     .         A         
         C131      C132      1.379     .         A         
         C137      C138      1.379     .         A         
         C137      C142      1.379     .         A         
         C138      C139      1.379     .         A         
         C139      C140      1.379     .         A         
         C140      C141      1.379     .         A         
         C141      C142      1.379     .         A         
         C147      C148      1.379     .         A         
         C147      C152      1.379     1_556     A         
         C148      C149      1.379     1_556     A         
         C149      C148      1.379     1_554     A         
         C149      C150      1.379     .         A         
         C150      C151      1.379     .         A         
         C151      C152      1.379     .         A         
         C152      C147      1.379     1_554     A         
         C157      C158      1.379     .         A         
         C157      C162      1.379     .         A         
         C158      C159      1.379     .         A         
         C159      C160      1.379     .         A         
         C160      C161      1.379     .         A         
         C161      C162      1.379     .         A         
         C167      C168      1.379     .         A         
         C167      C172      1.379     .         A         
         C168      C169      1.379     1_655     A         
         C169      C168      1.379     1_455     A         
         C169      C170      1.379     .         A         
         C170      C171      1.379     .         A         
         C171      C172      1.379     1_455     A         
         C172      C171      1.379     1_655     A         
         C177      C178      1.379     .         A         
         C177      C182      1.379     .         A         
         C178      C179      1.379     .         A         
         C179      C180      1.379     .         A         
         C180      C181      1.379     .         A         
         C181      C182      1.379     .         A         
         C187      C188      1.379     .         A         
         C187      C192      1.379     1_556     A         
         C188      C189      1.379     1_556     A         
         C189      C188      1.379     1_554     A         
         C189      C190      1.379     .         A         
         C190      C191      1.379     .         A         
         C191      C192      1.379     .         A         
         C192      C187      1.379     1_554     A         
         C197      C198      1.379     .         A         
         C197      C202      1.379     .         A         
         C198      C199      1.379     .         A         
         C199      C200      1.379     .         A         
         C200      C201      1.379     .         A         
         C201      C202      1.379     .         A         
         C207      C208      1.379     .         A         
         C207      C212      1.379     .         A         
         C208      C209      1.379     .         A         
         C209      C210      1.379     .         A         
         C210      C211      1.379     .         A         
         C211      C212      1.379     .         A         
         C43       C46       1.205     1_455     T         
         C44       C45       1.205     .         T         
         C46       C43       1.205     1_655     T         
         C53       C56       1.205     .         T         
         C54       C55       1.205     .         T         
         C63       C66       1.205     .         T         
         C64       C65       1.205     .         T         
         C73       C76       1.205     .         T         
         C74       C75       1.205     1_655     T         
         C75       C74       1.205     1_455     T         
         C83       C86       1.205     .         T         
         C84       C85       1.205     .         T         
         C93       C96       1.205     .         T         
         C94       C95       1.205     .         T         
         C103      C106      1.205     .         T         
         C104      C105      1.205     .         T         
         C113      C116      1.205     .         T         
         C114      C115      1.205     .         T         
         C123      C126      1.205     .         T         
         C124      C125      1.205     1_455     T         
         C125      C124      1.205     1_655     T         
         C133      C136      1.205     .         T         
         C134      C135      1.205     .         T         
         C143      C146      1.205     .         T         
         C144      C145      1.205     .         T         
         C153      C156      1.205     .         T         
         C154      C155      1.205     .         T         
         C163      C166      1.205     .         T         
         C164      C165      1.205     .         T         
         C173      C176      1.205     .         T         
         C174      C175      1.205     .         T         
         C183      C186      1.205     .         T         
         C184      C185      1.205     .         T         
         C193      C196      1.205     .         T         
         C194      C195      1.205     .         T         
         C203      C206      1.205     .         T         
         C204      C205      1.205     .         T         
         C213      C216      1.205     .         T         
         C214      C215      1.205     .         T 